MODEL 1
REMARK VINA RESULT:   -11.388      0.000      0.000
REMARK INTER + INTRA:         -14.887
REMARK INTER:                 -15.383
REMARK INTRA:                   0.496
REMARK UNBOUND:                 0.496
REMARK SMILES CNc1cc(Nc2cccn(-c3cccc(C(C)(C)O)n3)c2=O)nc2c(C(=O)NC3CCC3)cnn12
REMARK SMILES IDX 7 1 8 2 9 3 10 4 11 5 22 6 23 7 6 8 5 10 3 11 4 12 36 13
REMARK SMILES IDX 35 14 25 15 24 16 34 17 26 18 2 19 1 20 27 22 28 23 29 24
REMARK SMILES IDX 30 26 31 27 33 28 32 29 12 30 13 31 21 32 14 33 16 34 15 35
REMARK SMILES IDX 17 36 18 37 19 38 20 39
REMARK H PARENT 6 9 2 21 29 25 20 40
ROOT
ATOM      1  C   UNL     1       6.595 -39.697  24.676  1.00  0.00     0.106 A 
ATOM      2  C   UNL     1       7.630 -40.571  24.924  1.00  0.00     0.033 A 
ATOM      3  C   UNL     1       8.852 -40.086  25.332  1.00  0.00     0.021 A 
ATOM      4  C   UNL     1       9.004 -38.735  25.480  1.00  0.00     0.097 A 
ATOM      5  N   UNL     1       8.006 -37.835  25.245  1.00  0.00    -0.266 N 
ATOM      6  C   UNL     1       6.838 -38.334  24.853  1.00  0.00     0.279 A 
ATOM      7  O   UNL     1       5.874 -37.575  24.620  1.00  0.00    -0.267 OA
ENDROOT
BRANCH   1   8
ATOM      8  N   UNL     1       5.320 -40.149  24.177  1.00  0.00    -0.336 N 
ATOM      9  H   UNL     1       5.915 -40.616  24.956  1.00  0.00     0.168 HD
BRANCH   8  10
ATOM     10  C   UNL     1       5.027 -41.544  24.125  1.00  0.00     0.136 A 
ATOM     11  C   UNL     1       4.196 -43.294  22.695  1.00  0.00     0.133 A 
ATOM     12  C   UNL     1       4.523 -41.974  22.886  1.00  0.00     0.094 A 
ATOM     13  N   UNL     1       4.378 -44.126  23.732  1.00  0.00    -0.198 N 
ATOM     14  N   UNL     1       4.130 -45.421  23.773  1.00  0.00    -0.172 NA
ATOM     15  C   UNL     1       4.868 -43.697  24.932  1.00  0.00     0.172 A 
ATOM     16  N   UNL     1       5.196 -42.402  25.135  1.00  0.00    -0.210 NA
ATOM     17  C   UNL     1       4.430 -45.930  24.973  1.00  0.00     0.152 A 
ATOM     18  C   UNL     1       4.900 -44.845  25.720  1.00  0.00     0.104 A 
BRANCH  11  19
ATOM     19  N   UNL     1       3.703 -43.712  21.436  1.00  0.00    -0.373 N 
ATOM     20  C   UNL     1       2.963 -42.873  20.518  1.00  0.00     0.141 C 
ATOM     21  H   UNL     1       7.392 -42.786  23.880  1.00  0.00     0.161 HD
ENDBRANCH  11  19
BRANCH  18  22
ATOM     22  C   UNL     1       5.340 -44.961  27.120  1.00  0.00     0.256 C 
ATOM     23  O   UNL     1       4.546 -44.771  28.075  1.00  0.00    -0.269 OA
ATOM     24  N   UNL     1       6.675 -45.288  27.407  1.00  0.00    -0.349 N 
ATOM     25  H   UNL     1       0.245 -43.479  25.265  1.00  0.00     0.164 HD
BRANCH  24  26
ATOM     26  C   UNL     1       7.287 -45.442  28.682  1.00  0.00     0.082 C 
ATOM     27  C   UNL     1       8.784 -45.652  28.680  1.00  0.00     0.025 C 
ATOM     28  C   UNL     1       7.135 -46.821  29.312  1.00  0.00     0.025 C 
ATOM     29  C   UNL     1       8.572 -47.135  28.944  1.00  0.00     0.004 C 
ENDBRANCH  24  26
ENDBRANCH  18  22
ENDBRANCH   8  10
ENDBRANCH   1   8
BRANCH   5  30
ATOM     30  C   UNL     1       8.331 -36.480  25.412  1.00  0.00     0.139 A 
ATOM     31  C   UNL     1       9.591 -35.983  25.651  1.00  0.00     0.048 A 
ATOM     32  N   UNL     1       7.343 -35.543  25.359  1.00  0.00    -0.232 NA
ATOM     33  C   UNL     1       9.828 -34.610  25.826  1.00  0.00     0.006 A 
ATOM     34  C   UNL     1       7.529 -34.232  25.521  1.00  0.00     0.074 A 
ATOM     35  C   UNL     1       8.778 -33.728  25.760  1.00  0.00     0.027 A 
BRANCH  34  36
ATOM     36  C   UNL     1       6.384 -33.270  25.471  1.00  0.00     0.101 C 
ATOM     37  C   UNL     1       6.841 -32.004  24.746  1.00  0.00     0.049 C 
ATOM     38  C   UNL     1       5.205 -33.866  24.718  1.00  0.00     0.049 C 
BRANCH  36  39
ATOM     39  O   UNL     1       5.988 -33.014  26.779  1.00  0.00    -0.384 OA
ATOM     40  H   UNL     1       4.510 -27.991  19.370  1.00  0.00     0.211 HD
ENDBRANCH  36  39
ENDBRANCH  34  36
ENDBRANCH   5  30
TORSDOF 8
ENDMDL
MODEL 2
REMARK VINA RESULT:   -11.150      1.476      1.813
REMARK INTER + INTRA:         -14.565
REMARK INTER:                 -14.685
REMARK INTRA:                   0.120
REMARK UNBOUND:                 0.496
REMARK SMILES CNc1cc(Nc2cccn(-c3cccc(C(C)(C)O)n3)c2=O)nc2c(C(=O)NC3CCC3)cnn12
REMARK SMILES IDX 7 1 8 2 9 3 10 4 11 5 22 6 23 7 6 8 5 10 3 11 4 12 36 13
REMARK SMILES IDX 35 14 25 15 24 16 34 17 26 18 2 19 1 20 27 22 28 23 29 24
REMARK SMILES IDX 30 26 31 27 33 28 32 29 12 30 13 31 21 32 14 33 16 34 15 35
REMARK SMILES IDX 17 36 18 37 19 38 20 39
REMARK H PARENT 6 9 2 21 29 25 20 40
ROOT
ATOM      1  C   UNL     1       7.047 -39.849  25.584  1.00  0.00     0.106 A 
ATOM      2  C   UNL     1       8.065 -40.548  24.975  1.00  0.00     0.033 A 
ATOM      3  C   UNL     1       9.202 -39.887  24.568  1.00  0.00     0.021 A 
ATOM      4  C   UNL     1       9.288 -38.539  24.782  1.00  0.00     0.097 A 
ATOM      5  N   UNL     1       8.304 -37.809  25.382  1.00  0.00    -0.266 N 
ATOM      6  C   UNL     1       7.219 -38.476  25.764  1.00  0.00     0.279 A 
ATOM      7  O   UNL     1       6.276 -37.878  26.322  1.00  0.00    -0.267 OA
ENDROOT
BRANCH   1   8
ATOM      8  N   UNL     1       5.809 -40.482  25.962  1.00  0.00    -0.336 N 
ATOM      9  H   UNL     1       6.810 -40.881  26.098  1.00  0.00     0.168 HD
BRANCH   8  10
ATOM     10  C   UNL     1       5.687 -41.902  25.909  1.00  0.00     0.136 A 
ATOM     11  C   UNL     1       4.649 -43.711  24.706  1.00  0.00     0.133 A 
ATOM     12  C   UNL     1       4.858 -42.364  24.873  1.00  0.00     0.094 A 
ATOM     13  N   UNL     1       5.264 -44.538  25.566  1.00  0.00    -0.198 N 
ATOM     14  N   UNL     1       5.203 -45.855  25.593  1.00  0.00    -0.172 NA
ATOM     15  C   UNL     1       6.067 -44.078  26.570  1.00  0.00     0.172 A 
ATOM     16  N   UNL     1       6.283 -42.756  26.747  1.00  0.00    -0.210 NA
ATOM     17  C   UNL     1       5.943 -46.350  26.592  1.00  0.00     0.152 A 
ATOM     18  C   UNL     1       6.497 -45.231  27.222  1.00  0.00     0.104 A 
BRANCH  11  19
ATOM     19  N   UNL     1       3.822 -44.159  23.648  1.00  0.00    -0.373 N 
ATOM     20  C   UNL     1       4.289 -44.499  22.322  1.00  0.00     0.141 C 
ATOM     21  H   UNL     1       5.586 -45.160  27.689  1.00  0.00     0.161 HD
ENDBRANCH  11  19
BRANCH  18  22
ATOM     22  C   UNL     1       7.386 -45.322  28.392  1.00  0.00     0.256 C 
ATOM     23  O   UNL     1       8.573 -44.915  28.347  1.00  0.00    -0.269 OA
ATOM     24  N   UNL     1       6.906 -45.876  29.590  1.00  0.00    -0.349 N 
ATOM     25  H   UNL     1       8.697 -43.442  23.260  1.00  0.00     0.164 HD
BRANCH  24  26
ATOM     26  C   UNL     1       7.605 -46.052  30.817  1.00  0.00     0.082 C 
ATOM     27  C   UNL     1       8.615 -47.176  30.851  1.00  0.00     0.025 C 
ATOM     28  C   UNL     1       6.826 -46.773  31.909  1.00  0.00     0.025 C 
ATOM     29  C   UNL     1       7.634 -48.028  31.642  1.00  0.00     0.004 C 
ENDBRANCH  24  26
ENDBRANCH  18  22
ENDBRANCH   8  10
ENDBRANCH   1   8
BRANCH   5  30
ATOM     30  C   UNL     1       8.531 -36.429  25.500  1.00  0.00     0.139 A 
ATOM     31  C   UNL     1       9.751 -35.835  25.726  1.00  0.00     0.048 A 
ATOM     32  N   UNL     1       7.479 -35.567  25.407  1.00  0.00    -0.232 NA
ATOM     33  C   UNL     1       9.888 -34.443  25.852  1.00  0.00     0.006 A 
ATOM     34  C   UNL     1       7.571 -34.241  25.522  1.00  0.00     0.074 A 
ATOM     35  C   UNL     1       8.779 -33.641  25.749  1.00  0.00     0.027 A 
BRANCH  34  36
ATOM     36  C   UNL     1       6.360 -33.366  25.431  1.00  0.00     0.101 C 
ATOM     37  C   UNL     1       6.728 -32.104  24.649  1.00  0.00     0.049 C 
ATOM     38  C   UNL     1       5.228 -34.077  24.708  1.00  0.00     0.049 C 
BRANCH  36  39
ATOM     39  O   UNL     1       5.946 -33.080  26.727  1.00  0.00    -0.384 OA
ATOM     40  H   UNL     1       1.110 -32.689  19.060  1.00  0.00     0.211 HD
ENDBRANCH  36  39
ENDBRANCH  34  36
ENDBRANCH   5  30
TORSDOF 8
ENDMDL
MODEL 3
REMARK VINA RESULT:   -11.050      1.973      2.717
REMARK INTER + INTRA:         -14.430
REMARK INTER:                 -14.703
REMARK INTRA:                   0.273
REMARK UNBOUND:                 0.496
REMARK SMILES CNc1cc(Nc2cccn(-c3cccc(C(C)(C)O)n3)c2=O)nc2c(C(=O)NC3CCC3)cnn12
REMARK SMILES IDX 7 1 8 2 9 3 10 4 11 5 22 6 23 7 6 8 5 10 3 11 4 12 36 13
REMARK SMILES IDX 35 14 25 15 24 16 34 17 26 18 2 19 1 20 27 22 28 23 29 24
REMARK SMILES IDX 30 26 31 27 33 28 32 29 12 30 13 31 21 32 14 33 16 34 15 35
REMARK SMILES IDX 17 36 18 37 19 38 20 39
REMARK H PARENT 6 9 2 21 29 25 20 40
ROOT
ATOM      1  C   UNL     1       6.422 -40.411  25.426  1.00  0.00     0.106 A 
ATOM      2  C   UNL     1       5.224 -40.384  26.104  1.00  0.00     0.033 A 
ATOM      3  C   UNL     1       4.741 -39.191  26.594  1.00  0.00     0.021 A 
ATOM      4  C   UNL     1       5.476 -38.056  26.391  1.00  0.00     0.097 A 
ATOM      5  N   UNL     1       6.667 -38.038  25.726  1.00  0.00    -0.266 N 
ATOM      6  C   UNL     1       7.105 -39.205  25.264  1.00  0.00     0.279 A 
ATOM      7  O   UNL     1       8.186 -39.271  24.643  1.00  0.00    -0.267 OA
ENDROOT
BRANCH   1   8
ATOM      8  N   UNL     1       7.005 -41.645  24.958  1.00  0.00    -0.336 N 
ATOM      9  H   UNL     1       5.976 -41.488  25.268  1.00  0.00     0.168 HD
BRANCH   8  10
ATOM     10  C   UNL     1       6.547 -42.892  25.475  1.00  0.00     0.136 A 
ATOM     11  C   UNL     1       4.844 -44.578  25.235  1.00  0.00     0.133 A 
ATOM     12  C   UNL     1       5.397 -43.386  24.837  1.00  0.00     0.094 A 
ATOM     13  N   UNL     1       5.450 -45.227  26.243  1.00  0.00    -0.198 N 
ATOM     14  N   UNL     1       5.093 -46.376  26.784  1.00  0.00    -0.172 NA
ATOM     15  C   UNL     1       6.567 -44.738  26.856  1.00  0.00     0.172 A 
ATOM     16  N   UNL     1       7.122 -43.567  26.475  1.00  0.00    -0.210 NA
ATOM     17  C   UNL     1       5.927 -46.722  27.771  1.00  0.00     0.152 A 
ATOM     18  C   UNL     1       6.869 -45.689  27.828  1.00  0.00     0.104 A 
BRANCH  11  19
ATOM     19  N   UNL     1       3.694 -45.066  24.572  1.00  0.00    -0.373 N 
ATOM     20  C   UNL     1       3.679 -45.598  23.226  1.00  0.00     0.141 C 
ATOM     21  H   UNL     1       6.641 -45.756  27.930  1.00  0.00     0.161 HD
ENDBRANCH  11  19
BRANCH  18  22
ATOM     22  C   UNL     1       7.981 -45.665  28.792  1.00  0.00     0.256 C 
ATOM     23  O   UNL     1       9.142 -45.336  28.446  1.00  0.00    -0.269 OA
ATOM     24  N   UNL     1       7.750 -46.018  30.132  1.00  0.00    -0.349 N 
ATOM     25  H   UNL     1       8.232 -44.598  23.279  1.00  0.00     0.164 HD
BRANCH  24  26
ATOM     26  C   UNL     1       8.686 -46.059  31.202  1.00  0.00     0.082 C 
ATOM     27  C   UNL     1       8.214 -46.729  32.473  1.00  0.00     0.025 C 
ATOM     28  C   UNL     1       8.830 -44.762  31.988  1.00  0.00     0.025 C 
ATOM     29  C   UNL     1       8.008 -45.363  33.111  1.00  0.00     0.004 C 
ENDBRANCH  24  26
ENDBRANCH  18  22
ENDBRANCH   8  10
ENDBRANCH   1   8
BRANCH   5  30
ATOM     30  C   UNL     1       7.313 -36.796  25.630  1.00  0.00     0.139 A 
ATOM     31  C   UNL     1       8.674 -36.599  25.646  1.00  0.00     0.048 A 
ATOM     32  N   UNL     1       6.568 -35.660  25.528  1.00  0.00    -0.232 NA
ATOM     33  C   UNL     1       9.241 -35.317  25.565  1.00  0.00     0.006 A 
ATOM     34  C   UNL     1       7.070 -34.426  25.450  1.00  0.00     0.074 A 
ATOM     35  C   UNL     1       8.422 -34.219  25.467  1.00  0.00     0.027 A 
BRANCH  34  36
ATOM     36  C   UNL     1       6.179 -33.227  25.365  1.00  0.00     0.101 C 
ATOM     37  C   UNL     1       6.936 -32.106  24.652  1.00  0.00     0.049 C 
ATOM     38  C   UNL     1       4.916 -33.541  24.578  1.00  0.00     0.049 C 
BRANCH  36  39
ATOM     39  O   UNL     1       5.816 -32.876  26.660  1.00  0.00    -0.384 OA
ATOM     40  H   UNL     1       1.847 -38.884  21.140  1.00  0.00     0.211 HD
ENDBRANCH  36  39
ENDBRANCH  34  36
ENDBRANCH   5  30
TORSDOF 8
ENDMDL
MODEL 4
REMARK VINA RESULT:   -10.739      3.240      6.404
REMARK INTER + INTRA:         -14.010
REMARK INTER:                 -13.459
REMARK INTRA:                  -0.551
REMARK UNBOUND:                 0.496
REMARK SMILES CNc1cc(Nc2cccn(-c3cccc(C(C)(C)O)n3)c2=O)nc2c(C(=O)NC3CCC3)cnn12
REMARK SMILES IDX 7 1 8 2 9 3 10 4 11 5 22 6 23 7 6 8 5 10 3 11 4 12 36 13
REMARK SMILES IDX 35 14 25 15 24 16 34 17 26 18 2 19 1 20 27 22 28 23 29 24
REMARK SMILES IDX 30 26 31 27 33 28 32 29 12 30 13 31 21 32 14 33 16 34 15 35
REMARK SMILES IDX 17 36 18 37 19 38 20 39
REMARK H PARENT 6 9 2 21 29 25 20 40
ROOT
ATOM      1  C   UNL     1       5.031 -44.139  25.237  1.00  0.00     0.106 A 
ATOM      2  C   UNL     1       4.604 -44.369  23.949  1.00  0.00     0.033 A 
ATOM      3  C   UNL     1       4.663 -43.357  23.016  1.00  0.00     0.021 A 
ATOM      4  C   UNL     1       5.148 -42.139  23.404  1.00  0.00     0.097 A 
ATOM      5  N   UNL     1       5.581 -41.868  24.669  1.00  0.00    -0.266 N 
ATOM      6  C   UNL     1       5.513 -42.866  25.545  1.00  0.00     0.279 A 
ATOM      7  O   UNL     1       5.892 -42.697  26.722  1.00  0.00    -0.267 OA
ENDROOT
BRANCH   1   8
ATOM      8  N   UNL     1       4.922 -45.143  26.267  1.00  0.00    -0.336 N 
ATOM      9  H   UNL     1       5.660 -44.348  26.210  1.00  0.00     0.168 HD
BRANCH   8  10
ATOM     10  C   UNL     1       6.096 -45.636  26.909  1.00  0.00     0.136 A 
ATOM     11  C   UNL     1       7.124 -45.982  29.059  1.00  0.00     0.133 A 
ATOM     12  C   UNL     1       6.059 -45.545  28.311  1.00  0.00     0.094 A 
ATOM     13  N   UNL     1       8.174 -46.487  28.393  1.00  0.00    -0.198 N 
ATOM     14  N   UNL     1       9.295 -46.958  28.904  1.00  0.00    -0.172 NA
ATOM     15  C   UNL     1       8.200 -46.570  27.030  1.00  0.00     0.172 A 
ATOM     16  N   UNL     1       7.160 -46.146  26.281  1.00  0.00    -0.210 NA
ATOM     17  C   UNL     1      10.124 -47.377  27.941  1.00  0.00     0.152 A 
ATOM     18  C   UNL     1       9.441 -47.136  26.745  1.00  0.00     0.104 A 
BRANCH  11  19
ATOM     19  N   UNL     1       7.063 -45.896  30.470  1.00  0.00    -0.373 N 
ATOM     20  C   UNL     1       6.569 -46.940  31.342  1.00  0.00     0.141 C 
ATOM     21  H   UNL     1       9.771 -46.172  26.860  1.00  0.00     0.161 HD
ENDBRANCH  11  19
BRANCH  18  22
ATOM     22  C   UNL     1      10.001 -47.448  25.419  1.00  0.00     0.256 C 
ATOM     23  O   UNL     1      10.698 -46.614  24.789  1.00  0.00    -0.269 OA
ATOM     24  N   UNL     1       9.755 -48.702  24.836  1.00  0.00    -0.349 N 
ATOM     25  H   UNL     1      10.394 -42.592  28.224  1.00  0.00     0.164 HD
BRANCH  24  26
ATOM     26  C   UNL     1      10.202 -49.185  23.575  1.00  0.00     0.082 C 
ATOM     27  C   UNL     1       9.478 -50.397  23.034  1.00  0.00     0.025 C 
ATOM     28  C   UNL     1      11.478 -50.017  23.615  1.00  0.00     0.025 C 
ATOM     29  C   UNL     1      10.651 -51.276  23.442  1.00  0.00     0.004 C 
ENDBRANCH  24  26
ENDBRANCH  18  22
ENDBRANCH   8  10
ENDBRANCH   1   8
BRANCH   5  30
ATOM     30  C   UNL     1       6.020 -40.558  24.914  1.00  0.00     0.139 A 
ATOM     31  C   UNL     1       5.209 -39.465  25.111  1.00  0.00     0.048 A 
ATOM     32  N   UNL     1       7.357 -40.296  24.952  1.00  0.00    -0.232 NA
ATOM     33  C   UNL     1       5.732 -38.181  25.332  1.00  0.00     0.006 A 
ATOM     34  C   UNL     1       7.891 -39.091  25.157  1.00  0.00     0.074 A 
ATOM     35  C   UNL     1       7.092 -37.998  25.352  1.00  0.00     0.027 A 
BRANCH  34  36
ATOM     36  C   UNL     1       9.373 -38.885  25.159  1.00  0.00     0.101 C 
ATOM     37  C   UNL     1       9.664 -37.435  24.770  1.00  0.00     0.049 C 
ATOM     38  C   UNL     1       9.957 -39.148  26.537  1.00  0.00     0.049 C 
BRANCH  36  39
ATOM     39  O   UNL     1       9.928 -39.792  24.264  1.00  0.00    -0.384 OA
ATOM     40  H   UNL     1       6.708 -41.368  32.598  1.00  0.00     0.211 HD
ENDBRANCH  36  39
ENDBRANCH  34  36
ENDBRANCH   5  30
TORSDOF 8
ENDMDL
MODEL 5
REMARK VINA RESULT:   -10.725      3.288      9.508
REMARK INTER + INTRA:         -13.990
REMARK INTER:                 -13.223
REMARK INTRA:                  -0.767
REMARK UNBOUND:                 0.496
REMARK SMILES CNc1cc(Nc2cccn(-c3cccc(C(C)(C)O)n3)c2=O)nc2c(C(=O)NC3CCC3)cnn12
REMARK SMILES IDX 7 1 8 2 9 3 10 4 11 5 22 6 23 7 6 8 5 10 3 11 4 12 36 13
REMARK SMILES IDX 35 14 25 15 24 16 34 17 26 18 2 19 1 20 27 22 28 23 29 24
REMARK SMILES IDX 30 26 31 27 33 28 32 29 12 30 13 31 21 32 14 33 16 34 15 35
REMARK SMILES IDX 17 36 18 37 19 38 20 39
REMARK H PARENT 6 9 2 21 29 25 20 40
ROOT
ATOM      1  C   UNL     1       6.662 -46.419  28.394  1.00  0.00     0.106 A 
ATOM      2  C   UNL     1       5.651 -47.321  28.640  1.00  0.00     0.033 A 
ATOM      3  C   UNL     1       5.369 -47.697  29.935  1.00  0.00     0.021 A 
ATOM      4  C   UNL     1       6.111 -47.158  30.949  1.00  0.00     0.097 A 
ATOM      5  N   UNL     1       7.120 -46.261  30.749  1.00  0.00    -0.266 N 
ATOM      6  C   UNL     1       7.367 -45.918  29.489  1.00  0.00     0.279 A 
ATOM      7  O   UNL     1       8.274 -45.101  29.225  1.00  0.00    -0.267 OA
ENDROOT
BRANCH   1   8
ATOM      8  N   UNL     1       7.043 -46.050  27.053  1.00  0.00    -0.336 N 
ATOM      9  H   UNL     1       6.613 -45.399  27.809  1.00  0.00     0.168 HD
BRANCH   8  10
ATOM     10  C   UNL     1       6.307 -45.050  26.351  1.00  0.00     0.136 A 
ATOM     11  C   UNL     1       4.457 -44.708  24.848  1.00  0.00     0.133 A 
ATOM     12  C   UNL     1       5.249 -45.558  25.579  1.00  0.00     0.094 A 
ATOM     13  N   UNL     1       4.744 -43.398  24.912  1.00  0.00    -0.198 N 
ATOM     14  N   UNL     1       4.123 -42.412  24.294  1.00  0.00    -0.172 NA
ATOM     15  C   UNL     1       5.775 -42.914  25.665  1.00  0.00     0.172 A 
ATOM     16  N   UNL     1       6.562 -43.739  26.390  1.00  0.00    -0.210 NA
ATOM     17  C   UNL     1       4.684 -41.233  24.587  1.00  0.00     0.152 A 
ATOM     18  C   UNL     1       5.735 -41.538  25.457  1.00  0.00     0.104 A 
BRANCH  11  19
ATOM     19  N   UNL     1       3.388 -45.237  24.087  1.00  0.00    -0.373 N 
ATOM     20  C   UNL     1       3.506 -46.326  23.142  1.00  0.00     0.141 C 
ATOM     21  H   UNL     1       5.159 -44.782  28.222  1.00  0.00     0.161 HD
ENDBRANCH  11  19
BRANCH  18  22
ATOM     22  C   UNL     1       6.631 -40.518  26.027  1.00  0.00     0.256 C 
ATOM     23  O   UNL     1       6.242 -39.731  26.925  1.00  0.00    -0.269 OA
ATOM     24  N   UNL     1       7.954 -40.414  25.564  1.00  0.00    -0.349 N 
ATOM     25  H   UNL     1       1.206 -41.344  27.242  1.00  0.00     0.164 HD
BRANCH  24  26
ATOM     26  C   UNL     1       8.961 -39.501  25.983  1.00  0.00     0.082 C 
ATOM     27  C   UNL     1       8.789 -38.069  25.530  1.00  0.00     0.025 C 
ATOM     28  C   UNL     1      10.258 -39.555  25.186  1.00  0.00     0.025 C 
ATOM     29  C   UNL     1       9.857 -38.282  24.467  1.00  0.00     0.004 C 
ENDBRANCH  24  26
ENDBRANCH  18  22
ENDBRANCH   8  10
ENDBRANCH   1   8
BRANCH   5  30
ATOM     30  C   UNL     1       7.807 -45.825  31.893  1.00  0.00     0.139 A 
ATOM     31  C   UNL     1       7.330 -44.927  32.819  1.00  0.00     0.048 A 
ATOM     32  N   UNL     1       9.064 -46.292  32.137  1.00  0.00    -0.232 NA
ATOM     33  C   UNL     1       8.093 -44.528  33.929  1.00  0.00     0.006 A 
ATOM     34  C   UNL     1       9.818 -45.935  33.179  1.00  0.00     0.074 A 
ATOM     35  C   UNL     1       9.354 -45.042  34.104  1.00  0.00     0.027 A 
BRANCH  34  36
ATOM     36  C   UNL     1      11.201 -46.478  33.360  1.00  0.00     0.101 C 
ATOM     37  C   UNL     1      11.107 -47.817  34.091  1.00  0.00     0.049 C 
ATOM     38  C   UNL     1      11.880 -46.699  32.019  1.00  0.00     0.049 C 
BRANCH  36  39
ATOM     39  O   UNL     1      11.934 -45.538  34.076  1.00  0.00    -0.384 OA
ATOM     40  H   UNL     1       9.718 -53.991  36.516  1.00  0.00     0.211 HD
ENDBRANCH  36  39
ENDBRANCH  34  36
ENDBRANCH   5  30
TORSDOF 8
ENDMDL
