MODEL 1
REMARK VINA RESULT:   -10.075      0.000      0.000
REMARK INTER + INTRA:         -15.529
REMARK INTER:                 -15.082
REMARK INTRA:                  -0.447
REMARK UNBOUND:                -0.447
REMARK SMILES CCO[C@H]1CC[C@@H]1NC(=O)c1cnn2c(NC)cc(NC3=CC=CN(c4ccccn4)[C@@H]3O)nc12
REMARK SMILES IDX 11 1 12 2 13 3 14 4 15 5 18 6 19 7 34 8 35 9 9 10 8 11 10 12
REMARK SMILES IDX 7 14 4 15 5 16 6 17 3 18 2 19 1 20 20 21 21 23 22 24 32 25
REMARK SMILES IDX 23 26 25 27 24 28 33 29 26 31 27 32 31 33 28 34 30 35 29 36
REMARK SMILES IDX 16 37 17 38
REMARK H PARENT 8 13 20 22 33 30 16 39
ROOT
ATOM      1  C   UNL     1       5.303 -45.097  26.101  1.00  0.00     0.104 A 
ATOM      2  C   UNL     1       4.245 -45.353  25.262  1.00  0.00     0.152 A 
ATOM      3  N   UNL     1       4.124 -44.312  24.389  1.00  0.00    -0.172 NA
ATOM      4  N   UNL     1       5.081 -43.431  24.678  1.00  0.00    -0.198 N 
ATOM      5  C   UNL     1       5.324 -42.258  24.063  1.00  0.00     0.133 A 
ATOM      6  C   UNL     1       6.389 -41.519  24.558  1.00  0.00     0.094 A 
ATOM      7  C   UNL     1       7.165 -41.942  25.616  1.00  0.00     0.136 A 
ATOM      8  N   UNL     1       6.853 -43.142  26.184  1.00  0.00    -0.210 NA
ATOM      9  C   UNL     1       5.817 -43.876  25.714  1.00  0.00     0.172 A 
ENDROOT
BRANCH   1  10
ATOM     10  C   UNL     1       5.745 -45.985  27.171  1.00  0.00     0.257 C 
ATOM     11  N   UNL     1       6.852 -45.670  28.008  1.00  0.00    -0.347 N 
ATOM     12  O   UNL     1       5.159 -47.075  27.398  1.00  0.00    -0.269 OA
ATOM     13  H   UNL     1       7.045 -42.084  26.690  1.00  0.00     0.164 HD
BRANCH  11  14
ATOM     14  C   UNL     1       7.267 -46.551  29.043  1.00  0.00     0.111 C 
ATOM     15  C   UNL     1       6.909 -46.214  30.460  1.00  0.00     0.140 C 
ATOM     16  C   UNL     1       8.350 -45.715  30.639  1.00  0.00     0.036 C 
ATOM     17  C   UNL     1       8.699 -46.568  29.442  1.00  0.00     0.030 C 
BRANCH  15  18
ATOM     18  O   UNL     1       6.773 -47.348  31.294  1.00  0.00    -0.376 OA
BRANCH  18  19
ATOM     19  C   UNL     1       5.830 -48.234  30.808  1.00  0.00     0.157 C 
ATOM     20  C   UNL     1       4.628 -48.218  31.728  1.00  0.00     0.035 C 
ENDBRANCH  18  19
ENDBRANCH  15  18
ENDBRANCH  11  14
ENDBRANCH   1  10
BRANCH   7  21
ATOM     21  N   UNL     1       8.249 -41.155  26.090  1.00  0.00    -0.340 N 
ATOM     22  H   UNL     1       6.995 -42.160  26.801  1.00  0.00     0.168 HD
BRANCH  21  23
ATOM     23  C   UNL     1       8.401 -39.853  25.538  1.00  0.00     0.067 C 
ATOM     24  C   UNL     1       9.609 -39.563  25.053  1.00  0.00     0.028 C 
ATOM     25  C   UNL     1       7.269 -38.912  25.531  1.00  0.00     0.265 C 
ATOM     26  C   UNL     1       9.866 -38.255  24.466  1.00  0.00     0.020 C 
ATOM     27  N   UNL     1       7.607 -37.649  24.926  1.00  0.00    -0.301 N 
ATOM     28  C   UNL     1       8.906 -37.350  24.410  1.00  0.00     0.091 C 
BRANCH  25  29
ATOM     29  O   UNL     1       6.856 -38.655  26.859  1.00  0.00    -0.368 OA
ATOM     30  H   UNL     1       5.676 -42.105  25.739  1.00  0.00     0.213 HD
ENDBRANCH  25  29
BRANCH  27  31
ATOM     31  C   UNL     1       6.603 -36.638  24.827  1.00  0.00     0.134 A 
ATOM     32  C   UNL     1       6.861 -35.304  25.071  1.00  0.00     0.047 A 
ATOM     33  N   UNL     1       5.331 -36.947  24.485  1.00  0.00    -0.239 NA
ATOM     34  C   UNL     1       5.869 -34.354  24.966  1.00  0.00     0.005 A 
ATOM     35  C   UNL     1       4.342 -36.044  24.375  1.00  0.00     0.113 A 
ATOM     36  C   UNL     1       4.561 -34.698  24.611  1.00  0.00     0.020 A 
ENDBRANCH  27  31
ENDBRANCH  21  23
ENDBRANCH   7  21
BRANCH   5  37
ATOM     37  N   UNL     1       4.557 -41.783  22.975  1.00  0.00    -0.373 N 
ATOM     38  C   UNL     1       4.377 -42.533  21.736  1.00  0.00     0.141 C 
ATOM     39  H   UNL     1       7.495 -42.071  26.359  1.00  0.00     0.161 HD
ENDBRANCH   5  37
TORSDOF 9
ENDMDL
MODEL 2
REMARK VINA RESULT:    -9.523      2.257      9.106
REMARK INTER + INTRA:         -14.702
REMARK INTER:                 -13.468
REMARK INTRA:                  -1.234
REMARK UNBOUND:                -0.447
REMARK SMILES CCO[C@H]1CC[C@@H]1NC(=O)c1cnn2c(NC)cc(NC3=CC=CN(c4ccccn4)[C@@H]3O)nc12
REMARK SMILES IDX 11 1 12 2 13 3 14 4 15 5 18 6 19 7 34 8 35 9 9 10 8 11 10 12
REMARK SMILES IDX 7 14 4 15 5 16 6 17 3 18 2 19 1 20 20 21 21 23 22 24 32 25
REMARK SMILES IDX 23 26 25 27 24 28 33 29 26 31 27 32 31 33 28 34 30 35 29 36
REMARK SMILES IDX 16 37 17 38
REMARK H PARENT 8 13 20 22 33 30 16 39
ROOT
ATOM      1  C   UNL     1       5.660 -41.317  24.026  1.00  0.00     0.104 A 
ATOM      2  C   UNL     1       5.294 -41.494  22.714  1.00  0.00     0.152 A 
ATOM      3  N   UNL     1       4.781 -42.751  22.573  1.00  0.00    -0.172 NA
ATOM      4  N   UNL     1       4.828 -43.340  23.767  1.00  0.00    -0.198 N 
ATOM      5  C   UNL     1       4.423 -44.586  24.079  1.00  0.00     0.133 A 
ATOM      6  C   UNL     1       4.579 -44.964  25.404  1.00  0.00     0.094 A 
ATOM      7  C   UNL     1       5.116 -44.129  26.362  1.00  0.00     0.136 A 
ATOM      8  N   UNL     1       5.501 -42.883  25.964  1.00  0.00    -0.210 NA
ATOM      9  C   UNL     1       5.357 -42.498  24.674  1.00  0.00     0.172 A 
ENDROOT
BRANCH   1  10
ATOM     10  C   UNL     1       6.248 -40.096  24.565  1.00  0.00     0.257 C 
ATOM     11  N   UNL     1       7.565 -40.062  25.103  1.00  0.00    -0.347 N 
ATOM     12  O   UNL     1       5.608 -39.013  24.576  1.00  0.00    -0.269 OA
ATOM     13  H   UNL     1       8.375 -43.561  23.786  1.00  0.00     0.164 HD
BRANCH  11  14
ATOM     14  C   UNL     1       8.118 -38.862  25.625  1.00  0.00     0.111 C 
ATOM     15  C   UNL     1       8.444 -37.748  24.676  1.00  0.00     0.140 C 
ATOM     16  C   UNL     1       9.915 -38.181  24.774  1.00  0.00     0.036 C 
ATOM     17  C   UNL     1       9.536 -38.856  26.071  1.00  0.00     0.030 C 
BRANCH  15  18
ATOM     18  O   UNL     1       8.366 -36.463  25.262  1.00  0.00    -0.376 OA
BRANCH  18  19
ATOM     19  C   UNL     1       7.062 -36.107  25.549  1.00  0.00     0.157 C 
ATOM     20  C   UNL     1       6.430 -35.528  24.302  1.00  0.00     0.035 C 
ENDBRANCH  18  19
ENDBRANCH  15  18
ENDBRANCH  11  14
ENDBRANCH   1  10
BRANCH   7  21
ATOM     21  N   UNL     1       5.256 -44.556  27.710  1.00  0.00    -0.340 N 
ATOM     22  H   UNL     1       5.463 -43.056  26.818  1.00  0.00     0.168 HD
BRANCH  21  23
ATOM     23  C   UNL     1       5.949 -45.777  27.940  1.00  0.00     0.067 C 
ATOM     24  C   UNL     1       5.414 -46.588  28.853  1.00  0.00     0.028 C 
ATOM     25  C   UNL     1       7.184 -46.081  27.198  1.00  0.00     0.265 C 
ATOM     26  C   UNL     1       6.049 -47.862  29.160  1.00  0.00     0.020 C 
ATOM     27  N   UNL     1       7.739 -47.360  27.557  1.00  0.00    -0.301 N 
ATOM     28  C   UNL     1       7.157 -48.221  28.538  1.00  0.00     0.091 C 
BRANCH  25  29
ATOM     29  O   UNL     1       8.160 -45.095  27.475  1.00  0.00    -0.368 OA
ATOM     30  H   UNL     1       7.716 -45.508  23.710  1.00  0.00     0.213 HD
ENDBRANCH  25  29
BRANCH  27  31
ATOM     31  C   UNL     1       8.930 -47.806  26.904  1.00  0.00     0.134 A 
ATOM     32  C   UNL     1      10.048 -48.225  27.596  1.00  0.00     0.047 A 
ATOM     33  N   UNL     1       9.018 -47.836  25.554  1.00  0.00    -0.239 NA
ATOM     34  C   UNL     1      11.180 -48.648  26.936  1.00  0.00     0.005 A 
ATOM     35  C   UNL     1      10.108 -48.243  24.881  1.00  0.00     0.113 A 
ATOM     36  C   UNL     1      11.247 -48.670  25.540  1.00  0.00     0.020 A 
ENDBRANCH  27  31
ENDBRANCH  21  23
ENDBRANCH   7  21
BRANCH   5  37
ATOM     37  N   UNL     1       3.867 -45.477  23.133  1.00  0.00    -0.373 N 
ATOM     38  C   UNL     1       3.313 -46.778  23.491  1.00  0.00     0.141 C 
ATOM     39  H   UNL     1       6.600 -42.600  25.236  1.00  0.00     0.161 HD
ENDBRANCH   5  37
TORSDOF 9
ENDMDL
MODEL 3
REMARK VINA RESULT:    -9.364      1.588      2.596
REMARK INTER + INTRA:         -14.464
REMARK INTER:                 -14.679
REMARK INTRA:                   0.215
REMARK UNBOUND:                -0.447
REMARK SMILES CCO[C@H]1CC[C@@H]1NC(=O)c1cnn2c(NC)cc(NC3=CC=CN(c4ccccn4)[C@@H]3O)nc12
REMARK SMILES IDX 11 1 12 2 13 3 14 4 15 5 18 6 19 7 34 8 35 9 9 10 8 11 10 12
REMARK SMILES IDX 7 14 4 15 5 16 6 17 3 18 2 19 1 20 20 21 21 23 22 24 32 25
REMARK SMILES IDX 23 26 25 27 24 28 33 29 26 31 27 32 31 33 28 34 30 35 29 36
REMARK SMILES IDX 16 37 17 38
REMARK H PARENT 8 13 20 22 33 30 16 39
ROOT
ATOM      1  C   UNL     1       4.992 -44.769  25.940  1.00  0.00     0.104 A 
ATOM      2  C   UNL     1       4.398 -45.416  24.884  1.00  0.00     0.152 A 
ATOM      3  N   UNL     1       4.407 -44.581  23.804  1.00  0.00    -0.172 NA
ATOM      4  N   UNL     1       4.990 -43.444  24.180  1.00  0.00    -0.198 N 
ATOM      5  C   UNL     1       5.206 -42.349  23.427  1.00  0.00     0.133 A 
ATOM      6  C   UNL     1       5.838 -41.289  24.059  1.00  0.00     0.094 A 
ATOM      7  C   UNL     1       6.231 -41.332  25.381  1.00  0.00     0.136 A 
ATOM      8  N   UNL     1       5.975 -42.478  26.074  1.00  0.00    -0.210 NA
ATOM      9  C   UNL     1       5.358 -43.522  25.473  1.00  0.00     0.172 A 
ENDROOT
BRANCH   1  10
ATOM     10  C   UNL     1       5.170 -45.343  27.269  1.00  0.00     0.257 C 
ATOM     11  N   UNL     1       6.022 -46.457  27.506  1.00  0.00    -0.347 N 
ATOM     12  O   UNL     1       4.571 -44.870  28.269  1.00  0.00    -0.269 OA
ATOM     13  H   UNL     1       7.535 -46.259  23.998  1.00  0.00     0.164 HD
BRANCH  11  14
ATOM     14  C   UNL     1       6.179 -47.003  28.809  1.00  0.00     0.111 C 
ATOM     15  C   UNL     1       7.376 -46.599  29.617  1.00  0.00     0.140 C 
ATOM     16  C   UNL     1       8.005 -47.948  29.241  1.00  0.00     0.036 C 
ATOM     17  C   UNL     1       6.600 -48.421  28.949  1.00  0.00     0.030 C 
BRANCH  15  18
ATOM     18  O   UNL     1       7.154 -46.637  31.014  1.00  0.00    -0.376 OA
BRANCH  18  19
ATOM     19  C   UNL     1       7.847 -45.639  31.672  1.00  0.00     0.157 C 
ATOM     20  C   UNL     1       9.066 -45.272  30.852  1.00  0.00     0.035 C 
ENDBRANCH  18  19
ENDBRANCH  15  18
ENDBRANCH  11  14
ENDBRANCH   1  10
BRANCH   7  21
ATOM     21  N   UNL     1       6.878 -40.223  25.989  1.00  0.00    -0.340 N 
ATOM     22  H   UNL     1       6.339 -41.819  26.490  1.00  0.00     0.168 HD
BRANCH  21  23
ATOM     23  C   UNL     1       6.336 -38.932  25.739  1.00  0.00     0.067 C 
ATOM     24  C   UNL     1       5.017 -38.880  25.548  1.00  0.00     0.028 C 
ATOM     25  C   UNL     1       7.216 -37.753  25.696  1.00  0.00     0.265 C 
ATOM     26  C   UNL     1       4.367 -37.604  25.286  1.00  0.00     0.020 C 
ATOM     27  N   UNL     1       6.491 -36.535  25.440  1.00  0.00    -0.301 N 
ATOM     28  C   UNL     1       5.077 -36.492  25.236  1.00  0.00     0.091 C 
BRANCH  25  29
ATOM     29  O   UNL     1       8.170 -37.910  24.663  1.00  0.00    -0.368 OA
ATOM     30  H   UNL     1       4.694 -38.876  23.425  1.00  0.00     0.213 HD
ENDBRANCH  25  29
BRANCH  27  31
ATOM     31  C   UNL     1       7.208 -35.300  25.389  1.00  0.00     0.134 A 
ATOM     32  C   UNL     1       6.650 -34.133  24.909  1.00  0.00     0.047 A 
ATOM     33  N   UNL     1       8.490 -35.218  25.816  1.00  0.00    -0.239 NA
ATOM     34  C   UNL     1       7.370 -32.959  24.873  1.00  0.00     0.005 A 
ATOM     35  C   UNL     1       9.217 -34.088  25.794  1.00  0.00     0.113 A 
ATOM     36  C   UNL     1       8.693 -32.898  25.319  1.00  0.00     0.020 A 
ENDBRANCH  27  31
ENDBRANCH  21  23
ENDBRANCH   7  21
BRANCH   5  37
ATOM     37  N   UNL     1       4.823 -42.258  22.070  1.00  0.00    -0.373 N 
ATOM     38  C   UNL     1       3.696 -42.994  21.506  1.00  0.00     0.141 C 
ATOM     39  H   UNL     1       7.233 -42.708  25.831  1.00  0.00     0.161 HD
ENDBRANCH   5  37
TORSDOF 9
ENDMDL
MODEL 4
REMARK VINA RESULT:    -9.109      1.840      9.008
REMARK INTER + INTRA:         -14.082
REMARK INTER:                 -12.988
REMARK INTRA:                  -1.095
REMARK UNBOUND:                -0.447
REMARK SMILES CCO[C@H]1CC[C@@H]1NC(=O)c1cnn2c(NC)cc(NC3=CC=CN(c4ccccn4)[C@@H]3O)nc12
REMARK SMILES IDX 11 1 12 2 13 3 14 4 15 5 18 6 19 7 34 8 35 9 9 10 8 11 10 12
REMARK SMILES IDX 7 14 4 15 5 16 6 17 3 18 2 19 1 20 20 21 21 23 22 24 32 25
REMARK SMILES IDX 23 26 25 27 24 28 33 29 26 31 27 32 31 33 28 34 30 35 29 36
REMARK SMILES IDX 16 37 17 38
REMARK H PARENT 8 13 20 22 33 30 16 39
ROOT
ATOM      1  C   UNL     1       5.624 -41.411  24.493  1.00  0.00     0.104 A 
ATOM      2  C   UNL     1       5.204 -41.438  23.185  1.00  0.00     0.152 A 
ATOM      3  N   UNL     1       4.707 -42.680  22.915  1.00  0.00    -0.172 NA
ATOM      4  N   UNL     1       4.816 -43.407  24.027  1.00  0.00    -0.198 N 
ATOM      5  C   UNL     1       4.446 -44.689  24.203  1.00  0.00     0.133 A 
ATOM      6  C   UNL     1       4.666 -45.220  25.465  1.00  0.00     0.094 A 
ATOM      7  C   UNL     1       5.230 -44.494  26.494  1.00  0.00     0.136 A 
ATOM      8  N   UNL     1       5.576 -43.201  26.233  1.00  0.00    -0.210 NA
ATOM      9  C   UNL     1       5.369 -42.668  25.006  1.00  0.00     0.172 A 
ENDROOT
BRANCH   1  10
ATOM     10  C   UNL     1       6.214 -40.250  25.150  1.00  0.00     0.257 C 
ATOM     11  N   UNL     1       7.570 -39.872  24.946  1.00  0.00    -0.347 N 
ATOM     12  O   UNL     1       5.539 -39.531  25.931  1.00  0.00    -0.269 OA
ATOM     13  H   UNL     1       7.995 -42.327  22.044  1.00  0.00     0.164 HD
BRANCH  11  14
ATOM     14  C   UNL     1       8.125 -38.738  25.599  1.00  0.00     0.111 C 
ATOM     15  C   UNL     1       8.211 -37.445  24.845  1.00  0.00     0.140 C 
ATOM     16  C   UNL     1       9.701 -37.745  24.625  1.00  0.00     0.036 C 
ATOM     17  C   UNL     1       9.596 -38.677  25.809  1.00  0.00     0.030 C 
BRANCH  15  18
ATOM     18  O   UNL     1       8.151 -36.301  25.674  1.00  0.00    -0.376 OA
BRANCH  18  19
ATOM     19  C   UNL     1       7.492 -35.254  25.060  1.00  0.00     0.157 C 
ATOM     20  C   UNL     1       6.173 -35.761  24.517  1.00  0.00     0.035 C 
ENDBRANCH  18  19
ENDBRANCH  15  18
ENDBRANCH  11  14
ENDBRANCH   1  10
BRANCH   7  21
ATOM     21  N   UNL     1       5.436 -45.075  27.774  1.00  0.00    -0.340 N 
ATOM     22  H   UNL     1       4.600 -43.670  27.130  1.00  0.00     0.168 HD
BRANCH  21  23
ATOM     23  C   UNL     1       6.759 -45.486  28.100  1.00  0.00     0.067 C 
ATOM     24  C   UNL     1       7.558 -45.754  27.066  1.00  0.00     0.028 C 
ATOM     25  C   UNL     1       7.174 -45.603  29.507  1.00  0.00     0.265 C 
ATOM     26  C   UNL     1       8.930 -46.182  27.296  1.00  0.00     0.020 C 
ATOM     27  N   UNL     1       8.544 -46.023  29.643  1.00  0.00    -0.301 N 
ATOM     28  C   UNL     1       9.391 -46.307  28.527  1.00  0.00     0.091 C 
BRANCH  25  29
ATOM     29  O   UNL     1       6.364 -46.561  30.164  1.00  0.00    -0.368 OA
ATOM     30  H   UNL     1       9.950 -47.825  29.867  1.00  0.00     0.213 HD
ENDBRANCH  25  29
BRANCH  27  31
ATOM     31  C   UNL     1       9.100 -46.162  30.952  1.00  0.00     0.134 A 
ATOM     32  C   UNL     1       9.161 -45.118  31.851  1.00  0.00     0.047 A 
ATOM     33  N   UNL     1       9.602 -47.346  31.376  1.00  0.00    -0.239 NA
ATOM     34  C   UNL     1       9.704 -45.286  33.106  1.00  0.00     0.005 A 
ATOM     35  C   UNL     1      10.138 -47.541  32.593  1.00  0.00     0.113 A 
ATOM     36  C   UNL     1      10.217 -46.518  33.522  1.00  0.00     0.020 A 
ENDBRANCH  27  31
ENDBRANCH  21  23
ENDBRANCH   7  21
BRANCH   5  37
ATOM     37  N   UNL     1       3.865 -45.473  23.180  1.00  0.00    -0.373 N 
ATOM     38  C   UNL     1       3.302 -46.799  23.412  1.00  0.00     0.141 C 
ATOM     39  H   UNL     1       6.664 -42.855  25.520  1.00  0.00     0.161 HD
ENDBRANCH   5  37
TORSDOF 9
ENDMDL
MODEL 5
REMARK VINA RESULT:    -9.039      4.242      6.817
REMARK INTER + INTRA:         -13.978
REMARK INTER:                 -13.399
REMARK INTRA:                  -0.579
REMARK UNBOUND:                -0.447
REMARK SMILES CCO[C@H]1CC[C@@H]1NC(=O)c1cnn2c(NC)cc(NC3=CC=CN(c4ccccn4)[C@@H]3O)nc12
REMARK SMILES IDX 11 1 12 2 13 3 14 4 15 5 18 6 19 7 34 8 35 9 9 10 8 11 10 12
REMARK SMILES IDX 7 14 4 15 5 16 6 17 3 18 2 19 1 20 20 21 21 23 22 24 32 25
REMARK SMILES IDX 23 26 25 27 24 28 33 29 26 31 27 32 31 33 28 34 30 35 29 36
REMARK SMILES IDX 16 37 17 38
REMARK H PARENT 8 13 20 22 33 30 16 39
ROOT
ATOM      1  C   UNL     1       9.421 -46.859  26.869  1.00  0.00     0.104 A 
ATOM      2  C   UNL     1      10.096 -46.888  28.065  1.00  0.00     0.152 A 
ATOM      3  N   UNL     1       9.241 -46.501  29.055  1.00  0.00    -0.172 NA
ATOM      4  N   UNL     1       8.064 -46.236  28.488  1.00  0.00    -0.198 N 
ATOM      5  C   UNL     1       6.939 -45.822  29.100  1.00  0.00     0.133 A 
ATOM      6  C   UNL     1       5.839 -45.616  28.280  1.00  0.00     0.094 A 
ATOM      7  C   UNL     1       5.875 -45.818  26.916  1.00  0.00     0.136 A 
ATOM      8  N   UNL     1       7.054 -46.238  26.374  1.00  0.00    -0.210 NA
ATOM      9  C   UNL     1       8.137 -46.443  27.160  1.00  0.00     0.172 A 
ENDROOT
BRANCH   1  10
ATOM     10  C   UNL     1      10.004 -47.211  25.579  1.00  0.00     0.257 C 
ATOM     11  N   UNL     1       9.845 -48.502  25.002  1.00  0.00    -0.347 N 
ATOM     12  O   UNL     1      10.679 -46.379  24.919  1.00  0.00    -0.269 OA
ATOM     13  H   UNL     1       7.202 -49.512  27.577  1.00  0.00     0.164 HD
BRANCH  11  14
ATOM     14  C   UNL     1      10.424 -48.825  23.745  1.00  0.00     0.111 C 
ATOM     15  C   UNL     1       9.941 -50.047  23.024  1.00  0.00     0.140 C 
ATOM     16  C   UNL     1      11.208 -50.761  23.517  1.00  0.00     0.036 C 
ATOM     17  C   UNL     1      11.801 -49.385  23.709  1.00  0.00     0.030 C 
BRANCH  15  18
ATOM     18  O   UNL     1      10.055 -49.957  21.617  1.00  0.00    -0.376 OA
BRANCH  18  19
ATOM     19  C   UNL     1      10.123 -51.204  21.025  1.00  0.00     0.157 C 
ATOM     20  C   UNL     1      10.879 -51.083  19.720  1.00  0.00     0.035 C 
ENDBRANCH  18  19
ENDBRANCH  15  18
ENDBRANCH  11  14
ENDBRANCH   1  10
BRANCH   7  21
ATOM     21  N   UNL     1       4.724 -45.598  26.113  1.00  0.00    -0.340 N 
ATOM     22  H   UNL     1       5.705 -46.977  26.586  1.00  0.00     0.168 HD
BRANCH  21  23
ATOM     23  C   UNL     1       4.765 -44.510  25.196  1.00  0.00     0.067 C 
ATOM     24  C   UNL     1       4.440 -44.798  23.936  1.00  0.00     0.028 C 
ATOM     25  C   UNL     1       5.156 -43.167  25.655  1.00  0.00     0.265 C 
ATOM     26  C   UNL     1       4.451 -43.753  22.922  1.00  0.00     0.020 C 
ATOM     27  N   UNL     1       5.132 -42.195  24.593  1.00  0.00    -0.301 N 
ATOM     28  C   UNL     1       4.782 -42.516  23.244  1.00  0.00     0.091 C 
BRANCH  25  29
ATOM     29  O   UNL     1       6.472 -43.206  26.172  1.00  0.00    -0.368 OA
ATOM     30  H   UNL     1       4.178 -41.252  28.511  1.00  0.00     0.213 HD
ENDBRANCH  25  29
BRANCH  27  31
ATOM     31  C   UNL     1       5.468 -40.838  24.888  1.00  0.00     0.134 A 
ATOM     32  C   UNL     1       6.733 -40.323  24.691  1.00  0.00     0.047 A 
ATOM     33  N   UNL     1       4.545 -39.982  25.384  1.00  0.00    -0.239 NA
ATOM     34  C   UNL     1       7.023 -39.010  24.987  1.00  0.00     0.005 A 
ATOM     35  C   UNL     1       4.798 -38.696  25.682  1.00  0.00     0.113 A 
ATOM     36  C   UNL     1       6.053 -38.143  25.499  1.00  0.00     0.020 A 
ENDBRANCH  27  31
ENDBRANCH  21  23
ENDBRANCH   7  21
BRANCH   5  37
ATOM     37  N   UNL     1       6.853 -45.602  30.494  1.00  0.00    -0.373 N 
ATOM     38  C   UNL     1       6.642 -46.674  31.460  1.00  0.00     0.141 C 
ATOM     39  H   UNL     1       6.272 -45.291  26.052  1.00  0.00     0.161 HD
ENDBRANCH   5  37
TORSDOF 9
ENDMDL
