MODEL 1
REMARK VINA RESULT:   -10.380      0.000      0.000
REMARK INTER + INTRA:         -14.443
REMARK INTER:                 -14.021
REMARK INTRA:                  -0.423
REMARK UNBOUND:                -0.423
REMARK SMILES CNc1cc(Nc2cccn(-c3ccc(C)nc3)c2=O)nc2c(C(=O)NC3CC3)cnn12
REMARK SMILES IDX 6 1 5 3 3 4 4 5 32 6 31 7 22 8 21 9 30 10 23 11 2 12 1 13
REMARK SMILES IDX 24 15 25 16 26 17 27 19 28 20 29 21 7 22 8 23 19 24 9 25
REMARK SMILES IDX 11 26 20 27 10 28 12 29 13 30 18 31 14 32 17 33 15 34 16 35
REMARK H PARENT 6 2 2 14 26 18
ROOT
ATOM      1  N   UNL     1       6.559 -40.371  26.353  1.00  0.00    -0.336 N 
ATOM      2  H   UNL     1       6.012 -39.742  24.876  1.00  0.00     0.168 HD
ENDROOT
BRANCH   1   3
ATOM      3  C   UNL     1       5.994 -41.427  25.589  1.00  0.00     0.136 A 
ATOM      4  C   UNL     1       5.147 -42.401  23.529  1.00  0.00     0.133 A 
ATOM      5  C   UNL     1       5.691 -41.338  24.254  1.00  0.00     0.094 A 
ATOM      6  N   UNL     1       4.936 -43.533  24.228  1.00  0.00    -0.198 N 
ATOM      7  N   UNL     1       4.453 -44.702  23.874  1.00  0.00    -0.172 NA
ATOM      8  C   UNL     1       5.241 -43.612  25.553  1.00  0.00     0.172 A 
ATOM      9  N   UNL     1       5.762 -42.583  26.236  1.00  0.00    -0.210 NA
ATOM     10  C   UNL     1       4.411 -45.576  24.884  1.00  0.00     0.152 A 
ATOM     11  C   UNL     1       4.914 -44.898  25.979  1.00  0.00     0.104 A 
BRANCH   4  12
ATOM     12  N   UNL     1       4.850 -42.250  22.153  1.00  0.00    -0.373 N 
ATOM     13  C   UNL     1       3.646 -42.657  21.507  1.00  0.00     0.141 C 
ATOM     14  H   UNL     1       6.645 -40.850  26.747  1.00  0.00     0.161 HD
ENDBRANCH   4  12
BRANCH  11  15
ATOM     15  C   UNL     1       5.055 -45.479  27.307  1.00  0.00     0.256 C 
ATOM     16  O   UNL     1       4.581 -44.842  28.297  1.00  0.00    -0.269 OA
ATOM     17  N   UNL     1       5.696 -46.720  27.559  1.00  0.00    -0.349 N 
ATOM     18  H   UNL     1       0.734 -44.509  25.946  1.00  0.00     0.164 HD
BRANCH  17  19
ATOM     19  C   UNL     1       5.801 -47.239  28.917  1.00  0.00     0.082 C 
ATOM     20  C   UNL     1       6.897 -48.293  29.078  1.00  0.00     0.027 C 
ATOM     21  C   UNL     1       6.954 -46.955  29.775  1.00  0.00     0.027 C 
ENDBRANCH  17  19
ENDBRANCH  11  15
ENDBRANCH   1   3
BRANCH   1  22
ATOM     22  C   UNL     1       7.549 -39.534  25.759  1.00  0.00     0.106 A 
ATOM     23  C   UNL     1       8.656 -40.092  25.134  1.00  0.00     0.033 A 
ATOM     24  C   UNL     1       7.434 -38.162  25.777  1.00  0.00     0.278 A 
ATOM     25  C   UNL     1       9.625 -39.310  24.543  1.00  0.00     0.021 A 
ATOM     26  N   UNL     1       8.379 -37.383  25.198  1.00  0.00    -0.281 N 
ATOM     27  O   UNL     1       6.448 -37.595  26.331  1.00  0.00    -0.267 OA
ATOM     28  C   UNL     1       9.450 -37.939  24.594  1.00  0.00     0.095 A 
BRANCH  26  29
ATOM     29  C   UNL     1       8.296 -35.968  25.180  1.00  0.00     0.067 A 
ATOM     30  C   UNL     1       7.250 -35.263  24.624  1.00  0.00     0.030 A 
ATOM     31  C   UNL     1       9.367 -35.289  25.769  1.00  0.00     0.138 A 
ATOM     32  C   UNL     1       7.335 -33.881  24.692  1.00  0.00     0.025 A 
ATOM     33  N   UNL     1       9.399 -33.954  25.807  1.00  0.00    -0.259 NA
ATOM     34  C   UNL     1       8.390 -33.241  25.272  1.00  0.00     0.037 A 
ATOM     35  C   UNL     1       8.517 -31.755  25.357  1.00  0.00     0.066 C 
ENDBRANCH  26  29
ENDBRANCH   1  22
TORSDOF 6
ENDMDL
MODEL 2
REMARK VINA RESULT:    -9.577      1.280      1.870
REMARK INTER + INTRA:         -13.359
REMARK INTER:                 -13.607
REMARK INTRA:                   0.248
REMARK UNBOUND:                -0.423
REMARK SMILES CNc1cc(Nc2cccn(-c3ccc(C)nc3)c2=O)nc2c(C(=O)NC3CC3)cnn12
REMARK SMILES IDX 6 1 5 3 3 4 4 5 32 6 31 7 22 8 21 9 30 10 23 11 2 12 1 13
REMARK SMILES IDX 24 15 25 16 26 17 27 19 28 20 29 21 7 22 8 23 19 24 9 25
REMARK SMILES IDX 11 26 20 27 10 28 12 29 13 30 18 31 14 32 17 33 15 34 16 35
REMARK H PARENT 6 2 2 14 26 18
ROOT
ATOM      1  N   UNL     1       7.083 -40.184  25.619  1.00  0.00    -0.336 N 
ATOM      2  H   UNL     1       5.491 -40.129  26.202  1.00  0.00     0.168 HD
ENDROOT
BRANCH   1   3
ATOM      3  C   UNL     1       6.365 -41.290  25.089  1.00  0.00     0.136 A 
ATOM      4  C   UNL     1       5.187 -42.463  23.316  1.00  0.00     0.133 A 
ATOM      5  C   UNL     1       5.880 -41.353  23.808  1.00  0.00     0.094 A 
ATOM      6  N   UNL     1       5.024 -43.478  24.186  1.00  0.00    -0.198 N 
ATOM      7  N   UNL     1       4.439 -44.648  24.064  1.00  0.00    -0.172 NA
ATOM      8  C   UNL     1       5.509 -43.405  25.456  1.00  0.00     0.172 A 
ATOM      9  N   UNL     1       6.171 -42.334  25.915  1.00  0.00    -0.210 NA
ATOM     10  C   UNL     1       4.499 -45.379  25.181  1.00  0.00     0.152 A 
ATOM     11  C   UNL     1       5.185 -44.600  26.094  1.00  0.00     0.104 A 
BRANCH   4  12
ATOM     12  N   UNL     1       4.705 -42.471  21.985  1.00  0.00    -0.373 N 
ATOM     13  C   UNL     1       3.349 -42.657  21.587  1.00  0.00     0.141 C 
ATOM     14  H   UNL     1       7.523 -40.836  25.945  1.00  0.00     0.161 HD
ENDBRANCH   4  12
BRANCH  11  15
ATOM     15  C   UNL     1       5.485 -45.012  27.459  1.00  0.00     0.256 C 
ATOM     16  O   UNL     1       4.562 -44.943  28.327  1.00  0.00    -0.269 OA
ATOM     17  N   UNL     1       6.757 -45.489  27.875  1.00  0.00    -0.349 N 
ATOM     18  H   UNL     1       1.952 -47.185  25.395  1.00  0.00     0.164 HD
BRANCH  17  19
ATOM     19  C   UNL     1       6.984 -45.883  29.260  1.00  0.00     0.082 C 
ATOM     20  C   UNL     1       7.991 -47.024  29.405  1.00  0.00     0.027 C 
ATOM     21  C   UNL     1       8.256 -45.638  29.943  1.00  0.00     0.027 C 
ENDBRANCH  17  19
ENDBRANCH  11  15
ENDBRANCH   1   3
BRANCH   1  22
ATOM     22  C   UNL     1       6.538 -38.872  25.487  1.00  0.00     0.106 A 
ATOM     23  C   UNL     1       5.171 -38.695  25.318  1.00  0.00     0.033 A 
ATOM     24  C   UNL     1       7.339 -37.754  25.534  1.00  0.00     0.278 A 
ATOM     25  C   UNL     1       4.613 -37.441  25.198  1.00  0.00     0.021 A 
ATOM     26  N   UNL     1       6.802 -36.515  25.418  1.00  0.00    -0.281 N 
ATOM     27  O   UNL     1       8.591 -37.851  25.686  1.00  0.00    -0.267 OA
ATOM     28  C   UNL     1       5.471 -36.358  25.254  1.00  0.00     0.095 A 
BRANCH  26  29
ATOM     29  C   UNL     1       7.584 -35.335  25.473  1.00  0.00     0.067 A 
ATOM     30  C   UNL     1       8.959 -35.324  25.566  1.00  0.00     0.030 A 
ATOM     31  C   UNL     1       6.873 -34.132  25.433  1.00  0.00     0.138 A 
ATOM     32  C   UNL     1       9.562 -34.077  25.613  1.00  0.00     0.025 A 
ATOM     33  N   UNL     1       7.505 -32.956  25.482  1.00  0.00    -0.259 NA
ATOM     34  C   UNL     1       8.847 -32.916  25.572  1.00  0.00     0.037 A 
ATOM     35  C   UNL     1       9.464 -31.556  25.627  1.00  0.00     0.066 C 
ENDBRANCH  26  29
ENDBRANCH   1  22
TORSDOF 6
ENDMDL
MODEL 3
REMARK VINA RESULT:    -9.205      5.488      8.426
REMARK INTER + INTRA:         -12.856
REMARK INTER:                 -12.165
REMARK INTRA:                  -0.692
REMARK UNBOUND:                -0.423
REMARK SMILES CNc1cc(Nc2cccn(-c3ccc(C)nc3)c2=O)nc2c(C(=O)NC3CC3)cnn12
REMARK SMILES IDX 6 1 5 3 3 4 4 5 32 6 31 7 22 8 21 9 30 10 23 11 2 12 1 13
REMARK SMILES IDX 24 15 25 16 26 17 27 19 28 20 29 21 7 22 8 23 19 24 9 25
REMARK SMILES IDX 11 26 20 27 10 28 12 29 13 30 18 31 14 32 17 33 15 34 16 35
REMARK H PARENT 6 2 2 14 26 18
ROOT
ATOM      1  N   UNL     1       5.084 -46.525  27.673  1.00  0.00    -0.336 N 
ATOM      2  H   UNL     1       6.341 -46.894  26.595  1.00  0.00     0.168 HD
ENDROOT
BRANCH   1   3
ATOM      3  C   UNL     1       6.122 -47.180  28.389  1.00  0.00     0.136 A 
ATOM      4  C   UNL     1       7.547 -47.503  30.331  1.00  0.00     0.133 A 
ATOM      5  C   UNL     1       6.530 -46.828  29.650  1.00  0.00     0.094 A 
ATOM      6  N   UNL     1       8.107 -48.532  29.667  1.00  0.00    -0.198 N 
ATOM      7  N   UNL     1       9.065 -49.369  29.998  1.00  0.00    -0.172 NA
ATOM      8  C   UNL     1       7.695 -48.874  28.415  1.00  0.00     0.172 A 
ATOM      9  N   UNL     1       6.718 -48.217  27.773  1.00  0.00    -0.210 NA
ATOM     10  C   UNL     1       9.328 -50.264  29.041  1.00  0.00     0.152 A 
ATOM     11  C   UNL     1       8.457 -49.966  28.009  1.00  0.00     0.104 A 
BRANCH   4  12
ATOM     12  N   UNL     1       7.930 -47.093  31.631  1.00  0.00    -0.373 N 
ATOM     13  C   UNL     1       7.191 -46.224  32.486  1.00  0.00     0.141 C 
ATOM     14  H   UNL     1       7.286 -50.377  27.746  1.00  0.00     0.161 HD
ENDBRANCH   4  12
BRANCH  11  15
ATOM     15  C   UNL     1       8.395 -50.702  26.753  1.00  0.00     0.256 C 
ATOM     16  O   UNL     1       7.800 -51.823  26.740  1.00  0.00    -0.269 OA
ATOM     17  N   UNL     1       8.964 -50.235  25.539  1.00  0.00    -0.349 N 
ATOM     18  H   UNL     1       4.335 -49.749  28.772  1.00  0.00     0.164 HD
BRANCH  17  19
ATOM     19  C   UNL     1       8.862 -51.027  24.320  1.00  0.00     0.082 C 
ATOM     20  C   UNL     1       9.595 -50.403  23.132  1.00  0.00     0.027 C 
ATOM     21  C   UNL     1      10.016 -51.720  23.740  1.00  0.00     0.027 C 
ENDBRANCH  17  19
ENDBRANCH  11  15
ENDBRANCH   1   3
BRANCH   1  22
ATOM     22  C   UNL     1       5.404 -45.398  26.859  1.00  0.00     0.106 A 
ATOM     23  C   UNL     1       6.381 -44.497  27.263  1.00  0.00     0.033 A 
ATOM     24  C   UNL     1       4.770 -45.177  25.657  1.00  0.00     0.278 A 
ATOM     25  C   UNL     1       6.719 -43.404  26.494  1.00  0.00     0.021 A 
ATOM     26  N   UNL     1       5.095 -44.106  24.893  1.00  0.00    -0.281 N 
ATOM     27  O   UNL     1       3.873 -45.962  25.236  1.00  0.00    -0.267 OA
ATOM     28  C   UNL     1       6.047 -43.238  25.298  1.00  0.00     0.095 A 
BRANCH  26  29
ATOM     29  C   UNL     1       4.479 -43.845  23.643  1.00  0.00     0.067 A 
ATOM     30  C   UNL     1       4.430 -44.748  22.603  1.00  0.00     0.030 A 
ATOM     31  C   UNL     1       3.904 -42.578  23.502  1.00  0.00     0.138 A 
ATOM     32  C   UNL     1       3.790 -44.323  21.449  1.00  0.00     0.025 A 
ATOM     33  N   UNL     1       3.300 -42.219  22.366  1.00  0.00    -0.259 NA
ATOM     34  C   UNL     1       3.237 -43.082  21.335  1.00  0.00     0.037 A 
ATOM     35  C   UNL     1       2.545 -42.589  20.105  1.00  0.00     0.066 C 
ENDBRANCH  26  29
ENDBRANCH   1  22
TORSDOF 6
ENDMDL
MODEL 4
REMARK VINA RESULT:    -9.015      1.911      2.737
REMARK INTER + INTRA:         -12.600
REMARK INTER:                 -12.981
REMARK INTRA:                   0.381
REMARK UNBOUND:                -0.423
REMARK SMILES CNc1cc(Nc2cccn(-c3ccc(C)nc3)c2=O)nc2c(C(=O)NC3CC3)cnn12
REMARK SMILES IDX 6 1 5 3 3 4 4 5 32 6 31 7 22 8 21 9 30 10 23 11 2 12 1 13
REMARK SMILES IDX 24 15 25 16 26 17 27 19 28 20 29 21 7 22 8 23 19 24 9 25
REMARK SMILES IDX 11 26 20 27 10 28 12 29 13 30 18 31 14 32 17 33 15 34 16 35
REMARK H PARENT 6 2 2 14 26 18
ROOT
ATOM      1  N   UNL     1       7.226 -41.233  25.555  1.00  0.00    -0.336 N 
ATOM      2  H   UNL     1       6.263 -41.174  26.950  1.00  0.00     0.168 HD
ENDROOT
BRANCH   1   3
ATOM      3  C   UNL     1       6.515 -42.458  25.671  1.00  0.00     0.136 A 
ATOM      4  C   UNL     1       4.835 -44.067  24.964  1.00  0.00     0.133 A 
ATOM      5  C   UNL     1       5.506 -42.848  24.828  1.00  0.00     0.094 A 
ATOM      6  N   UNL     1       5.244 -44.843  25.986  1.00  0.00    -0.198 N 
ATOM      7  N   UNL     1       4.848 -46.027  26.397  1.00  0.00    -0.172 NA
ATOM      8  C   UNL     1       6.247 -44.448  26.817  1.00  0.00     0.172 A 
ATOM      9  N   UNL     1       6.882 -43.275  26.675  1.00  0.00    -0.210 NA
ATOM     10  C   UNL     1       5.526 -46.461  27.464  1.00  0.00     0.152 A 
ATOM     11  C   UNL     1       6.435 -45.461  27.755  1.00  0.00     0.104 A 
BRANCH   4  12
ATOM     12  N   UNL     1       3.798 -44.416  24.066  1.00  0.00    -0.373 N 
ATOM     13  C   UNL     1       3.706 -45.630  23.326  1.00  0.00     0.141 C 
ATOM     14  H   UNL     1       5.837 -42.498  28.362  1.00  0.00     0.161 HD
ENDBRANCH   4  12
BRANCH  11  15
ATOM     15  C   UNL     1       7.391 -45.517  28.853  1.00  0.00     0.256 C 
ATOM     16  O   UNL     1       8.600 -45.212  28.615  1.00  0.00    -0.269 OA
ATOM     17  N   UNL     1       7.046 -45.896  30.177  1.00  0.00    -0.349 N 
ATOM     18  H   UNL     1       7.028 -41.451  26.662  1.00  0.00     0.164 HD
BRANCH  17  19
ATOM     19  C   UNL     1       8.059 -45.930  31.225  1.00  0.00     0.082 C 
ATOM     20  C   UNL     1       7.470 -45.867  32.635  1.00  0.00     0.027 C 
ATOM     21  C   UNL     1       8.215 -47.077  32.124  1.00  0.00     0.027 C 
ENDBRANCH  17  19
ENDBRANCH  11  15
ENDBRANCH   1   3
BRANCH   1  22
ATOM     22  C   UNL     1       6.509 -40.003  25.626  1.00  0.00     0.106 A 
ATOM     23  C   UNL     1       5.139 -40.002  25.858  1.00  0.00     0.033 A 
ATOM     24  C   UNL     1       7.146 -38.791  25.480  1.00  0.00     0.278 A 
ATOM     25  C   UNL     1       4.420 -38.829  25.941  1.00  0.00     0.021 A 
ATOM     26  N   UNL     1       6.449 -37.631  25.561  1.00  0.00    -0.281 N 
ATOM     27  O   UNL     1       8.391 -38.728  25.268  1.00  0.00    -0.267 OA
ATOM     28  C   UNL     1       5.118 -37.646  25.787  1.00  0.00     0.095 A 
BRANCH  26  29
ATOM     29  C   UNL     1       7.063 -36.361  25.431  1.00  0.00     0.067 A 
ATOM     30  C   UNL     1       8.405 -36.126  25.643  1.00  0.00     0.030 A 
ATOM     31  C   UNL     1       6.215 -35.310  25.068  1.00  0.00     0.138 A 
ATOM     32  C   UNL     1       8.835 -34.820  25.473  1.00  0.00     0.025 A 
ATOM     33  N   UNL     1       6.682 -34.068  24.920  1.00  0.00    -0.259 NA
ATOM     34  C   UNL     1       7.989 -33.811  25.120  1.00  0.00     0.037 A 
ATOM     35  C   UNL     1       8.417 -32.391  24.935  1.00  0.00     0.066 C 
ENDBRANCH  26  29
ENDBRANCH   1  22
TORSDOF 6
ENDMDL
MODEL 5
REMARK VINA RESULT:    -8.953      2.992      5.466
REMARK INTER + INTRA:         -12.517
REMARK INTER:                 -12.913
REMARK INTRA:                   0.396
REMARK UNBOUND:                -0.423
REMARK SMILES CNc1cc(Nc2cccn(-c3ccc(C)nc3)c2=O)nc2c(C(=O)NC3CC3)cnn12
REMARK SMILES IDX 6 1 5 3 3 4 4 5 32 6 31 7 22 8 21 9 30 10 23 11 2 12 1 13
REMARK SMILES IDX 24 15 25 16 26 17 27 19 28 20 29 21 7 22 8 23 19 24 9 25
REMARK SMILES IDX 11 26 20 27 10 28 12 29 13 30 18 31 14 32 17 33 15 34 16 35
REMARK H PARENT 6 2 2 14 26 18
ROOT
ATOM      1  N   UNL     1       5.916 -36.761  23.609  1.00  0.00    -0.336 N 
ATOM      2  H   UNL     1       7.475 -36.486  24.218  1.00  0.00     0.168 HD
ENDROOT
BRANCH   1   3
ATOM      3  C   UNL     1       6.352 -37.929  24.289  1.00  0.00     0.136 A 
ATOM      4  C   UNL     1       7.805 -39.131  25.823  1.00  0.00     0.133 A 
ATOM      5  C   UNL     1       7.410 -37.965  25.161  1.00  0.00     0.094 A 
ATOM      6  N   UNL     1       7.075 -40.229  25.549  1.00  0.00    -0.198 N 
ATOM      7  N   UNL     1       7.160 -41.467  25.985  1.00  0.00    -0.172 NA
ATOM      8  C   UNL     1       6.026 -40.184  24.682  1.00  0.00     0.172 A 
ATOM      9  N   UNL     1       5.659 -39.058  24.053  1.00  0.00    -0.210 NA
ATOM     10  C   UNL     1       6.226 -42.268  25.463  1.00  0.00     0.152 A 
ATOM     11  C   UNL     1       5.482 -41.465  24.619  1.00  0.00     0.104 A 
BRANCH   4  12
ATOM     12  N   UNL     1       8.907 -39.110  26.711  1.00  0.00    -0.373 N 
ATOM     13  C   UNL     1      10.242 -39.498  26.395  1.00  0.00     0.141 C 
ATOM     14  H   UNL     1       4.629 -37.349  24.501  1.00  0.00     0.161 HD
ENDBRANCH   4  12
BRANCH  11  15
ATOM     15  C   UNL     1       4.345 -41.931  23.837  1.00  0.00     0.256 C 
ATOM     16  O   UNL     1       3.176 -41.674  24.261  1.00  0.00    -0.269 OA
ATOM     17  N   UNL     1       4.469 -42.660  22.625  1.00  0.00    -0.349 N 
ATOM     18  H   UNL     1       4.521 -37.379  24.679  1.00  0.00     0.164 HD
BRANCH  17  19
ATOM     19  C   UNL     1       3.284 -43.095  21.896  1.00  0.00     0.082 C 
ATOM     20  C   UNL     1       3.292 -42.676  20.426  1.00  0.00     0.027 C 
ATOM     21  C   UNL     1       3.342 -44.123  20.854  1.00  0.00     0.027 C 
ENDBRANCH  17  19
ENDBRANCH  11  15
ENDBRANCH   1   3
BRANCH   1  22
ATOM     22  C   UNL     1       5.988 -35.501  24.273  1.00  0.00     0.106 A 
ATOM     23  C   UNL     1       4.825 -34.840  24.649  1.00  0.00     0.033 A 
ATOM     24  C   UNL     1       7.196 -34.912  24.567  1.00  0.00     0.278 A 
ATOM     25  C   UNL     1       4.862 -33.626  25.300  1.00  0.00     0.021 A 
ATOM     26  N   UNL     1       7.245 -33.719  25.208  1.00  0.00    -0.281 N 
ATOM     27  O   UNL     1       8.288 -35.465  24.250  1.00  0.00    -0.267 OA
ATOM     28  C   UNL     1       6.107 -33.088  25.568  1.00  0.00     0.095 A 
BRANCH  26  29
ATOM     29  C   UNL     1       8.465 -33.081  25.545  1.00  0.00     0.067 A 
ATOM     30  C   UNL     1       9.538 -33.724  26.124  1.00  0.00     0.030 A 
ATOM     31  C   UNL     1       8.536 -31.715  25.256  1.00  0.00     0.138 A 
ATOM     32  C   UNL     1      10.652 -32.944  26.388  1.00  0.00     0.025 A 
ATOM     33  N   UNL     1       9.636 -31.009  25.533  1.00  0.00    -0.259 NA
ATOM     34  C   UNL     1      10.698 -31.612  26.099  1.00  0.00     0.037 A 
ATOM     35  C   UNL     1      11.880 -30.741  26.375  1.00  0.00     0.066 C 
ENDBRANCH  26  29
ENDBRANCH   1  22
TORSDOF 6
ENDMDL
