MODEL 1
REMARK VINA RESULT:    -9.945      0.000      0.000
REMARK INTER + INTRA:         -12.875
REMARK INTER:                 -12.561
REMARK INTRA:                  -0.314
REMARK UNBOUND:                -0.314
REMARK SMILES NC(=O)c1cnn2c(N)cc(Nc3cccn(-c4ccccn4)c3=O)nc12
REMARK SMILES IDX 4 1 5 2 6 3 7 4 8 5 10 6 11 7 26 8 27 9 2 10 1 11 3 12 12 15
REMARK SMILES IDX 13 17 14 18 24 19 15 20 17 21 25 22 16 23 18 24 19 25 23 26
REMARK SMILES IDX 20 27 22 28 21 29 9 30
REMARK H PARENT 1 13 1 14 12 16 9 31 9 32
ROOT
ATOM      1  C   UNL     1       4.850 -44.794  25.671  1.00  0.00     0.104 A 
ATOM      2  C   UNL     1       4.067 -45.265  24.615  1.00  0.00     0.152 A 
ATOM      3  N   UNL     1       4.120 -44.344  23.633  1.00  0.00    -0.172 NA
ATOM      4  N   UNL     1       4.882 -43.343  24.019  1.00  0.00    -0.199 N 
ATOM      5  C   UNL     1       5.245 -42.184  23.402  1.00  0.00     0.131 A 
ATOM      6  C   UNL     1       6.082 -41.295  24.076  1.00  0.00     0.093 A 
ATOM      7  C   UNL     1       6.551 -41.550  25.346  1.00  0.00     0.136 A 
ATOM      8  N   UNL     1       6.158 -42.712  25.910  1.00  0.00    -0.210 NA
ATOM      9  C   UNL     1       5.351 -43.576  25.262  1.00  0.00     0.172 A 
ENDROOT
BRANCH   1  10
ATOM     10  C   UNL     1       5.079 -45.474  26.951  1.00  0.00     0.254 C 
ATOM     11  N   UNL     1       5.167 -44.697  28.137  1.00  0.00    -0.365 N 
ATOM     12  O   UNL     1       5.188 -46.729  26.932  1.00  0.00    -0.269 OA
ATOM     13  H   UNL     1       5.155 -47.088  21.218  1.00  0.00     0.159 HD
ATOM     14  H   UNL     1       5.155 -47.088  21.218  1.00  0.00     0.159 HD
ENDBRANCH   1  10
BRANCH   7  15
ATOM     15  N   UNL     1       7.399 -40.667  26.064  1.00  0.00    -0.336 N 
ATOM     16  H   UNL     1       6.289 -40.075  24.746  1.00  0.00     0.168 HD
BRANCH  15  17
ATOM     17  C   UNL     1       7.832 -39.410  25.594  1.00  0.00     0.106 A 
ATOM     18  C   UNL     1       9.097 -39.372  25.002  1.00  0.00     0.033 A 
ATOM     19  C   UNL     1       7.094 -38.248  25.693  1.00  0.00     0.279 A 
ATOM     20  C   UNL     1       9.627 -38.190  24.511  1.00  0.00     0.021 A 
ATOM     21  N   UNL     1       7.612 -37.093  25.212  1.00  0.00    -0.266 N 
ATOM     22  O   UNL     1       5.955 -38.269  26.224  1.00  0.00    -0.267 OA
ATOM     23  C   UNL     1       8.843 -37.062  24.638  1.00  0.00     0.097 A 
BRANCH  21  24
ATOM     24  C   UNL     1       6.909 -35.859  25.281  1.00  0.00     0.139 A 
ATOM     25  C   UNL     1       5.720 -35.792  24.557  1.00  0.00     0.048 A 
ATOM     26  N   UNL     1       7.329 -34.800  25.985  1.00  0.00    -0.239 NA
ATOM     27  C   UNL     1       4.939 -34.646  24.539  1.00  0.00     0.005 A 
ATOM     28  C   UNL     1       6.596 -33.675  25.989  1.00  0.00     0.113 A 
ATOM     29  C   UNL     1       5.413 -33.574  25.284  1.00  0.00     0.020 A 
ENDBRANCH  21  24
ENDBRANCH  15  17
ENDBRANCH   7  15
BRANCH   5  30
ATOM     30  N   UNL     1       4.796 -41.875  22.108  1.00  0.00    -0.383 N 
ATOM     31  H   UNL     1       3.366 -43.330  24.985  1.00  0.00     0.158 HD
ATOM     32  H   UNL     1       3.366 -43.330  24.985  1.00  0.00     0.158 HD
ENDBRANCH   5  30
TORSDOF 5
ENDMDL
MODEL 2
REMARK VINA RESULT:    -9.285      1.500      2.117
REMARK INTER + INTRA:         -12.041
REMARK INTER:                 -11.779
REMARK INTRA:                  -0.263
REMARK UNBOUND:                -0.314
REMARK SMILES NC(=O)c1cnn2c(N)cc(Nc3cccn(-c4ccccn4)c3=O)nc12
REMARK SMILES IDX 4 1 5 2 6 3 7 4 8 5 10 6 11 7 26 8 27 9 2 10 1 11 3 12 12 15
REMARK SMILES IDX 13 17 14 18 24 19 15 20 17 21 25 22 16 23 18 24 19 25 23 26
REMARK SMILES IDX 20 27 22 28 21 29 9 30
REMARK H PARENT 1 13 1 14 12 16 9 31 9 32
ROOT
ATOM      1  C   UNL     1       4.872 -44.674  25.692  1.00  0.00     0.104 A 
ATOM      2  C   UNL     1       4.027 -45.499  24.948  1.00  0.00     0.152 A 
ATOM      3  N   UNL     1       3.812 -44.892  23.764  1.00  0.00    -0.172 NA
ATOM      4  N   UNL     1       4.469 -43.752  23.737  1.00  0.00    -0.199 N 
ATOM      5  C   UNL     1       4.575 -42.784  22.784  1.00  0.00     0.131 A 
ATOM      6  C   UNL     1       5.361 -41.662  23.048  1.00  0.00     0.093 A 
ATOM      7  C   UNL     1       6.032 -41.501  24.239  1.00  0.00     0.136 A 
ATOM      8  N   UNL     1       5.890 -42.490  25.147  1.00  0.00    -0.210 NA
ATOM      9  C   UNL     1       5.133 -43.577  24.897  1.00  0.00     0.172 A 
ENDROOT
BRANCH   1  10
ATOM     10  C   UNL     1       5.369 -44.940  27.046  1.00  0.00     0.254 C 
ATOM     11  N   UNL     1       6.745 -45.248  27.226  1.00  0.00    -0.365 N 
ATOM     12  O   UNL     1       4.541 -44.883  27.994  1.00  0.00    -0.269 OA
ATOM     13  H   UNL     1       0.001 -44.228  24.568  1.00  0.00     0.159 HD
ATOM     14  H   UNL     1       0.001 -44.228  24.568  1.00  0.00     0.159 HD
ENDBRANCH   1  10
BRANCH   7  15
ATOM     15  N   UNL     1       6.836 -40.372  24.545  1.00  0.00    -0.336 N 
ATOM     16  H   UNL     1       5.112 -40.511  25.122  1.00  0.00     0.168 HD
BRANCH  15  17
ATOM     17  C   UNL     1       6.334 -39.098  24.886  1.00  0.00     0.106 A 
ATOM     18  C   UNL     1       4.979 -39.036  25.224  1.00  0.00     0.033 A 
ATOM     19  C   UNL     1       7.089 -37.944  24.896  1.00  0.00     0.279 A 
ATOM     20  C   UNL     1       4.378 -37.837  25.568  1.00  0.00     0.021 A 
ATOM     21  N   UNL     1       6.501 -36.772  25.234  1.00  0.00    -0.266 N 
ATOM     22  O   UNL     1       8.308 -37.986  24.594  1.00  0.00    -0.267 OA
ATOM     23  C   UNL     1       5.184 -36.717  25.561  1.00  0.00     0.097 A 
BRANCH  21  24
ATOM     24  C   UNL     1       7.217 -35.544  25.264  1.00  0.00     0.139 A 
ATOM     25  C   UNL     1       6.518 -34.418  24.836  1.00  0.00     0.048 A 
ATOM     26  N   UNL     1       8.488 -35.432  25.673  1.00  0.00    -0.239 NA
ATOM     27  C   UNL     1       7.101 -33.159  24.815  1.00  0.00     0.005 A 
ATOM     28  C   UNL     1       9.082 -34.228  25.665  1.00  0.00     0.113 A 
ATOM     29  C   UNL     1       8.419 -33.091  25.247  1.00  0.00     0.020 A 
ENDBRANCH  21  24
ENDBRANCH  15  17
ENDBRANCH   7  15
BRANCH   5  30
ATOM     30  N   UNL     1       3.912 -42.898  21.552  1.00  0.00    -0.383 N 
ATOM     31  H   UNL     1       3.143 -43.686  24.902  1.00  0.00     0.158 HD
ATOM     32  H   UNL     1       3.143 -43.686  24.902  1.00  0.00     0.158 HD
ENDBRANCH   5  30
TORSDOF 5
ENDMDL
MODEL 3
REMARK VINA RESULT:    -9.263      2.024      3.225
REMARK INTER + INTRA:         -12.013
REMARK INTER:                 -11.473
REMARK INTRA:                  -0.540
REMARK UNBOUND:                -0.314
REMARK SMILES NC(=O)c1cnn2c(N)cc(Nc3cccn(-c4ccccn4)c3=O)nc12
REMARK SMILES IDX 4 1 5 2 6 3 7 4 8 5 10 6 11 7 26 8 27 9 2 10 1 11 3 12 12 15
REMARK SMILES IDX 13 17 14 18 24 19 15 20 17 21 25 22 16 23 18 24 19 25 23 26
REMARK SMILES IDX 20 27 22 28 21 29 9 30
REMARK H PARENT 1 13 1 14 12 16 9 31 9 32
ROOT
ATOM      1  C   UNL     1       4.384 -43.709  22.846  1.00  0.00     0.104 A 
ATOM      2  C   UNL     1       4.117 -45.072  22.705  1.00  0.00     0.152 A 
ATOM      3  N   UNL     1       4.407 -45.663  23.881  1.00  0.00    -0.172 NA
ATOM      4  N   UNL     1       4.833 -44.752  24.730  1.00  0.00    -0.199 N 
ATOM      5  C   UNL     1       5.246 -44.836  26.025  1.00  0.00     0.131 A 
ATOM      6  C   UNL     1       5.650 -43.673  26.680  1.00  0.00     0.093 A 
ATOM      7  C   UNL     1       5.646 -42.443  26.060  1.00  0.00     0.136 A 
ATOM      8  N   UNL     1       5.228 -42.418  24.777  1.00  0.00    -0.210 NA
ATOM      9  C   UNL     1       4.835 -43.540  24.139  1.00  0.00     0.172 A 
ENDROOT
BRANCH   1  10
ATOM     10  C   UNL     1       4.212 -42.682  21.813  1.00  0.00     0.254 C 
ATOM     11  N   UNL     1       2.988 -42.629  21.093  1.00  0.00    -0.365 N 
ATOM     12  O   UNL     1       5.171 -41.888  21.615  1.00  0.00    -0.269 OA
ATOM     13  H   UNL     1       8.761 -44.652  25.114  1.00  0.00     0.159 HD
ATOM     14  H   UNL     1       8.761 -44.652  25.114  1.00  0.00     0.159 HD
ENDBRANCH   1  10
BRANCH   7  15
ATOM     15  N   UNL     1       6.054 -41.240  26.692  1.00  0.00    -0.336 N 
ATOM     16  H   UNL     1       5.613 -41.296  24.925  1.00  0.00     0.168 HD
BRANCH  15  17
ATOM     17  C   UNL     1       6.598 -40.125  26.021  1.00  0.00     0.106 A 
ATOM     18  C   UNL     1       7.894 -40.273  25.522  1.00  0.00     0.033 A 
ATOM     19  C   UNL     1       5.935 -38.928  25.843  1.00  0.00     0.279 A 
ATOM     20  C   UNL     1       8.530 -39.241  24.852  1.00  0.00     0.021 A 
ATOM     21  N   UNL     1       6.557 -37.919  25.187  1.00  0.00    -0.266 N 
ATOM     22  O   UNL     1       4.769 -38.782  26.287  1.00  0.00    -0.267 OA
ATOM     23  C   UNL     1       7.818 -38.068  24.704  1.00  0.00     0.097 A 
BRANCH  21  24
ATOM     24  C   UNL     1       5.936 -36.659  24.968  1.00  0.00     0.139 A 
ATOM     25  C   UNL     1       6.698 -35.538  25.289  1.00  0.00     0.048 A 
ATOM     26  N   UNL     1       4.695 -36.513  24.485  1.00  0.00    -0.239 NA
ATOM     27  C   UNL     1       6.210 -34.250  25.123  1.00  0.00     0.005 A 
ATOM     28  C   UNL     1       4.192 -35.281  24.313  1.00  0.00     0.113 A 
ATOM     29  C   UNL     1       4.920 -34.148  24.620  1.00  0.00     0.020 A 
ENDBRANCH  21  24
ENDBRANCH  15  17
ENDBRANCH   7  15
BRANCH   5  30
ATOM     30  N   UNL     1       5.270 -46.064  26.704  1.00  0.00    -0.383 N 
ATOM     31  H   UNL     1       2.796 -43.681  25.906  1.00  0.00     0.158 HD
ATOM     32  H   UNL     1       2.796 -43.681  25.906  1.00  0.00     0.158 HD
ENDBRANCH   5  30
TORSDOF 5
ENDMDL
MODEL 4
REMARK VINA RESULT:    -9.070      2.211      8.448
REMARK INTER + INTRA:         -11.770
REMARK INTER:                 -11.803
REMARK INTRA:                   0.033
REMARK UNBOUND:                -0.314
REMARK SMILES NC(=O)c1cnn2c(N)cc(Nc3cccn(-c4ccccn4)c3=O)nc12
REMARK SMILES IDX 4 1 5 2 6 3 7 4 8 5 10 6 11 7 26 8 27 9 2 10 1 11 3 12 12 15
REMARK SMILES IDX 13 17 14 18 24 19 15 20 17 21 25 22 16 23 18 24 19 25 23 26
REMARK SMILES IDX 20 27 22 28 21 29 9 30
REMARK H PARENT 1 13 1 14 12 16 9 31 9 32
ROOT
ATOM      1  C   UNL     1       6.997 -33.957  25.192  1.00  0.00     0.104 A 
ATOM      2  C   UNL     1       7.742 -32.778  25.262  1.00  0.00     0.152 A 
ATOM      3  N   UNL     1       9.019 -33.125  25.515  1.00  0.00    -0.172 NA
ATOM      4  N   UNL     1       9.104 -34.435  25.604  1.00  0.00    -0.199 N 
ATOM      5  C   UNL     1      10.156 -35.265  25.845  1.00  0.00     0.131 A 
ATOM      6  C   UNL     1       9.933 -36.642  25.883  1.00  0.00     0.093 A 
ATOM      7  C   UNL     1       8.684 -37.188  25.684  1.00  0.00     0.136 A 
ATOM      8  N   UNL     1       7.678 -36.318  25.451  1.00  0.00    -0.210 NA
ATOM      9  C   UNL     1       7.889 -34.986  25.413  1.00  0.00     0.172 A 
ENDROOT
BRANCH   1  10
ATOM     10  C   UNL     1       5.556 -34.057  24.934  1.00  0.00     0.254 C 
ATOM     11  N   UNL     1       5.065 -35.164  24.190  1.00  0.00    -0.365 N 
ATOM     12  O   UNL     1       4.818 -33.144  25.390  1.00  0.00    -0.269 OA
ATOM     13  H   UNL     1       9.183 -29.895  27.169  1.00  0.00     0.159 HD
ATOM     14  H   UNL     1       9.183 -29.895  27.169  1.00  0.00     0.159 HD
ENDBRANCH   1  10
BRANCH   7  15
ATOM     15  N   UNL     1       8.418 -38.581  25.720  1.00  0.00    -0.336 N 
ATOM     16  H   UNL     1       7.215 -37.389  25.048  1.00  0.00     0.168 HD
BRANCH  15  17
ATOM     17  C   UNL     1       7.129 -39.153  25.698  1.00  0.00     0.106 A 
ATOM     18  C   UNL     1       6.136 -38.471  26.407  1.00  0.00     0.033 A 
ATOM     19  C   UNL     1       6.809 -40.322  25.039  1.00  0.00     0.279 A 
ATOM     20  C   UNL     1       4.836 -38.944  26.461  1.00  0.00     0.021 A 
ATOM     21  N   UNL     1       5.537 -40.784  25.091  1.00  0.00    -0.266 N 
ATOM     22  O   UNL     1       7.693 -40.945  24.399  1.00  0.00    -0.267 OA
ATOM     23  C   UNL     1       4.577 -40.117  25.781  1.00  0.00     0.097 A 
BRANCH  21  24
ATOM     24  C   UNL     1       5.137 -41.981  24.436  1.00  0.00     0.139 A 
ATOM     25  C   UNL     1       4.760 -41.851  23.102  1.00  0.00     0.048 A 
ATOM     26  N   UNL     1       5.110 -43.182  25.029  1.00  0.00    -0.239 NA
ATOM     27  C   UNL     1       4.348 -42.941  22.349  1.00  0.00     0.005 A 
ATOM     28  C   UNL     1       4.716 -44.257  24.329  1.00  0.00     0.113 A 
ATOM     29  C   UNL     1       4.335 -44.164  23.005  1.00  0.00     0.020 A 
ENDBRANCH  21  24
ENDBRANCH  15  17
ENDBRANCH   7  15
BRANCH   5  30
ATOM     30  N   UNL     1      11.450 -34.762  26.054  1.00  0.00    -0.383 N 
ATOM     31  H   UNL     1       8.496 -34.974  27.969  1.00  0.00     0.158 HD
ATOM     32  H   UNL     1       8.496 -34.974  27.969  1.00  0.00     0.158 HD
ENDBRANCH   5  30
TORSDOF 5
ENDMDL
MODEL 5
REMARK VINA RESULT:    -8.967      1.655      2.167
REMARK INTER + INTRA:         -11.640
REMARK INTER:                 -11.314
REMARK INTRA:                  -0.326
REMARK UNBOUND:                -0.314
REMARK SMILES NC(=O)c1cnn2c(N)cc(Nc3cccn(-c4ccccn4)c3=O)nc12
REMARK SMILES IDX 4 1 5 2 6 3 7 4 8 5 10 6 11 7 26 8 27 9 2 10 1 11 3 12 12 15
REMARK SMILES IDX 13 17 14 18 24 19 15 20 17 21 25 22 16 23 18 24 19 25 23 26
REMARK SMILES IDX 20 27 22 28 21 29 9 30
REMARK H PARENT 1 13 1 14 12 16 9 31 9 32
ROOT
ATOM      1  C   UNL     1       5.348 -44.543  26.006  1.00  0.00     0.104 A 
ATOM      2  C   UNL     1       4.810 -45.455  25.096  1.00  0.00     0.152 A 
ATOM      3  N   UNL     1       4.473 -44.765  23.988  1.00  0.00    -0.172 NA
ATOM      4  N   UNL     1       4.769 -43.494  24.162  1.00  0.00    -0.199 N 
ATOM      5  C   UNL     1       4.624 -42.407  23.356  1.00  0.00     0.131 A 
ATOM      6  C   UNL     1       5.037 -41.160  23.825  1.00  0.00     0.093 A 
ATOM      7  C   UNL     1       5.586 -40.993  25.078  1.00  0.00     0.136 A 
ATOM      8  N   UNL     1       5.704 -42.105  25.835  1.00  0.00    -0.210 NA
ATOM      9  C   UNL     1       5.308 -43.313  25.385  1.00  0.00     0.172 A 
ENDROOT
BRANCH   1  10
ATOM     10  C   UNL     1       5.849 -44.855  27.349  1.00  0.00     0.254 C 
ATOM     11  N   UNL     1       4.916 -45.128  28.386  1.00  0.00    -0.365 N 
ATOM     12  O   UNL     1       7.098 -44.865  27.518  1.00  0.00    -0.269 OA
ATOM     13  H   UNL     1       8.264 -42.870  22.280  1.00  0.00     0.159 HD
ATOM     14  H   UNL     1       8.264 -42.870  22.280  1.00  0.00     0.159 HD
ENDBRANCH   1  10
BRANCH   7  15
ATOM     15  N   UNL     1       6.012 -39.741  25.591  1.00  0.00    -0.336 N 
ATOM     16  H   UNL     1       6.754 -40.470  24.095  1.00  0.00     0.168 HD
BRANCH  15  17
ATOM     17  C   UNL     1       7.272 -39.158  25.340  1.00  0.00     0.106 A 
ATOM     18  C   UNL     1       8.260 -40.009  24.840  1.00  0.00     0.033 A 
ATOM     19  C   UNL     1       7.571 -37.830  25.564  1.00  0.00     0.279 A 
ATOM     20  C   UNL     1       9.536 -39.547  24.564  1.00  0.00     0.021 A 
ATOM     21  N   UNL     1       8.818 -37.378  25.292  1.00  0.00    -0.266 N 
ATOM     22  O   UNL     1       6.690 -37.053  26.014  1.00  0.00    -0.267 OA
ATOM     23  C   UNL     1       9.775 -38.210  24.807  1.00  0.00     0.097 A 
BRANCH  21  24
ATOM     24  C   UNL     1       9.197 -36.023  25.499  1.00  0.00     0.139 A 
ATOM     25  C   UNL     1      10.478 -35.816  26.007  1.00  0.00     0.048 A 
ATOM     26  N   UNL     1       8.401 -34.978  25.236  1.00  0.00    -0.239 NA
ATOM     27  C   UNL     1      10.970 -34.544  26.255  1.00  0.00     0.005 A 
ATOM     28  C   UNL     1       8.846 -33.732  25.465  1.00  0.00     0.113 A 
ATOM     29  C   UNL     1      10.110 -33.492  25.967  1.00  0.00     0.020 A 
ENDBRANCH  21  24
ENDBRANCH  15  17
ENDBRANCH   7  15
BRANCH   5  30
ATOM     30  N   UNL     1       4.072 -42.520  22.070  1.00  0.00    -0.383 N 
ATOM     31  H   UNL     1       3.416 -40.553  24.923  1.00  0.00     0.158 HD
ATOM     32  H   UNL     1       3.416 -40.553  24.923  1.00  0.00     0.158 HD
ENDBRANCH   5  30
TORSDOF 5
ENDMDL
