MODEL 1
REMARK VINA RESULT:   -11.265      0.000      0.000
REMARK INTER + INTRA:         -15.603
REMARK INTER:                 -15.217
REMARK INTRA:                  -0.386
REMARK UNBOUND:                -0.386
REMARK SMILES CNc1cc(Nc2cccn(-c3cccc(C)n3)c2=O)nc2c(C(=O)N[C@@H]3CC[N@@H+](C)C3=O)cnn12
REMARK SMILES IDX 3 1 4 2 5 3 21 4 22 5 23 6 34 7 35 8 36 9 2 10 1 11 6 13
REMARK SMILES IDX 7 15 8 16 19 17 9 18 11 19 20 20 10 21 12 22 13 23 18 24
REMARK SMILES IDX 14 25 16 26 15 27 17 28 24 29 25 30 26 31 27 33 28 34 32 35
REMARK SMILES IDX 29 36 30 37 33 38 31 39
REMARK H PARENT 2 12 6 14 26 32 30 40
ROOT
ATOM      1  C   UNL     1       5.125 -42.187  23.521  1.00  0.00     0.133 A 
ATOM      2  C   UNL     1       5.442 -40.978  24.060  1.00  0.00     0.094 A 
ATOM      3  C   UNL     1       5.735 -40.805  25.430  1.00  0.00     0.136 A 
ATOM      4  N   UNL     1       5.687 -41.897  26.190  1.00  0.00    -0.210 NA
ATOM      5  C   UNL     1       5.370 -43.108  25.664  1.00  0.00     0.172 A 
ATOM      6  C   UNL     1       5.239 -44.363  26.183  1.00  0.00     0.104 A 
ATOM      7  C   UNL     1       4.882 -45.244  25.145  1.00  0.00     0.152 A 
ATOM      8  N   UNL     1       4.811 -44.502  24.050  1.00  0.00    -0.172 NA
ATOM      9  N   UNL     1       5.092 -43.248  24.336  1.00  0.00    -0.198 N 
ENDROOT
BRANCH   1  10
ATOM     10  N   UNL     1       4.833 -42.274  22.131  1.00  0.00    -0.373 N 
ATOM     11  C   UNL     1       3.451 -42.616  21.789  1.00  0.00     0.141 C 
ATOM     12  H   UNL     1       5.135 -41.827  26.854  1.00  0.00     0.161 HD
ENDBRANCH   1  10
BRANCH   3  13
ATOM     13  N   UNL     1       6.013 -39.477  25.805  1.00  0.00    -0.336 N 
ATOM     14  H   UNL     1       5.962 -40.821  23.838  1.00  0.00     0.168 HD
BRANCH  13  15
ATOM     15  C   UNL     1       7.256 -38.920  25.387  1.00  0.00     0.106 A 
ATOM     16  C   UNL     1       8.282 -39.702  24.909  1.00  0.00     0.033 A 
ATOM     17  C   UNL     1       7.508 -37.543  25.515  1.00  0.00     0.279 A 
ATOM     18  C   UNL     1       9.513 -39.202  24.561  1.00  0.00     0.021 A 
ATOM     19  N   UNL     1       8.728 -37.049  25.174  1.00  0.00    -0.266 N 
ATOM     20  O   UNL     1       6.592 -36.805  25.948  1.00  0.00    -0.267 OA
ATOM     21  C   UNL     1       9.716 -37.844  24.705  1.00  0.00     0.097 A 
BRANCH  19  22
ATOM     22  C   UNL     1       8.968 -35.664  25.368  1.00  0.00     0.139 A 
ATOM     23  C   UNL     1      10.200 -35.348  25.957  1.00  0.00     0.048 A 
ATOM     24  N   UNL     1       8.099 -34.687  25.014  1.00  0.00    -0.235 NA
ATOM     25  C   UNL     1      10.573 -34.037  26.196  1.00  0.00     0.006 A 
ATOM     26  C   UNL     1       8.440 -33.380  25.238  1.00  0.00     0.040 A 
ATOM     27  C   UNL     1       9.648 -33.064  25.815  1.00  0.00     0.023 A 
ATOM     28  C   UNL     1       7.521 -32.264  24.861  1.00  0.00     0.067 C 
ENDBRANCH  19  22
ENDBRANCH  13  15
ENDBRANCH   3  13
BRANCH   6  29
ATOM     29  C   UNL     1       5.378 -44.856  27.544  1.00  0.00     0.257 C 
ATOM     30  O   UNL     1       4.441 -44.913  28.369  1.00  0.00    -0.269 OA
ATOM     31  N   UNL     1       6.673 -45.305  27.949  1.00  0.00    -0.336 N 
ATOM     32  H   UNL     1       3.032 -42.526  26.668  1.00  0.00     0.164 HD
BRANCH  31  33
ATOM     33  C   UNL     1       6.966 -45.844  29.254  1.00  0.00     0.218 C 
ATOM     34  C   UNL     1       8.454 -45.969  29.504  1.00  0.00     0.101 C 
ATOM     35  C   UNL     1       6.592 -47.293  29.184  1.00  0.00     0.334 C 
ATOM     36  C   UNL     1       8.815 -47.120  28.585  1.00  0.00     0.272 C 
ATOM     37  N   UNL     1       7.640 -47.950  28.494  1.00  0.00    -0.272 N 
ATOM     38  O   UNL     1       5.608 -47.863  29.606  1.00  0.00    -0.229 OA
ATOM     39  C   UNL     1       7.934 -49.243  29.103  1.00  0.00     0.341 C 
ATOM     40  H   UNL     1       5.340 -40.878  26.833  1.00  0.00     0.356 HD
ENDBRANCH  31  33
ENDBRANCH   6  29
TORSDOF 6
ENDMDL
MODEL 2
REMARK VINA RESULT:   -10.560      2.344      3.333
REMARK INTER + INTRA:         -14.650
REMARK INTER:                 -14.293
REMARK INTRA:                  -0.357
REMARK UNBOUND:                -0.386
REMARK SMILES CNc1cc(Nc2cccn(-c3cccc(C)n3)c2=O)nc2c(C(=O)N[C@@H]3CC[N@@H+](C)C3=O)cnn12
REMARK SMILES IDX 3 1 4 2 5 3 21 4 22 5 23 6 34 7 35 8 36 9 2 10 1 11 6 13
REMARK SMILES IDX 7 15 8 16 19 17 9 18 11 19 20 20 10 21 12 22 13 23 18 24
REMARK SMILES IDX 14 25 16 26 15 27 17 28 24 29 25 30 26 31 27 33 28 34 32 35
REMARK SMILES IDX 29 36 30 37 33 38 31 39
REMARK H PARENT 2 12 6 14 26 32 30 40
ROOT
ATOM      1  C   UNL     1       4.807 -44.143  25.161  1.00  0.00     0.133 A 
ATOM      2  C   UNL     1       5.440 -42.992  24.805  1.00  0.00     0.094 A 
ATOM      3  C   UNL     1       6.655 -42.576  25.391  1.00  0.00     0.136 A 
ATOM      4  N   UNL     1       7.168 -43.373  26.326  1.00  0.00    -0.210 NA
ATOM      5  C   UNL     1       6.544 -44.523  26.690  1.00  0.00     0.172 A 
ATOM      6  C   UNL     1       6.819 -45.506  27.596  1.00  0.00     0.104 A 
ATOM      7  C   UNL     1       5.795 -46.469  27.539  1.00  0.00     0.152 A 
ATOM      8  N   UNL     1       4.949 -46.043  26.614  1.00  0.00    -0.172 NA
ATOM      9  N   UNL     1       5.371 -44.903  26.108  1.00  0.00    -0.198 N 
ENDROOT
BRANCH   1  10
ATOM     10  N   UNL     1       3.579 -44.486  24.528  1.00  0.00    -0.373 N 
ATOM     11  C   UNL     1       3.680 -45.410  23.397  1.00  0.00     0.141 C 
ATOM     12  H   UNL     1       7.910 -43.956  26.415  1.00  0.00     0.161 HD
ENDBRANCH   1  10
BRANCH   3  13
ATOM     13  N   UNL     1       7.142 -41.345  24.913  1.00  0.00    -0.336 N 
ATOM     14  H   UNL     1       6.700 -42.424  26.991  1.00  0.00     0.168 HD
BRANCH  13  15
ATOM     15  C   UNL     1       6.527 -40.157  25.403  1.00  0.00     0.106 A 
ATOM     16  C   UNL     1       5.266 -40.163  25.954  1.00  0.00     0.033 A 
ATOM     17  C   UNL     1       7.163 -38.910  25.276  1.00  0.00     0.279 A 
ATOM     18  C   UNL     1       4.621 -39.025  26.374  1.00  0.00     0.021 A 
ATOM     19  N   UNL     1       6.523 -37.784  25.688  1.00  0.00    -0.266 N 
ATOM     20  O   UNL     1       8.313 -38.873  24.777  1.00  0.00    -0.267 OA
ATOM     21  C   UNL     1       5.284 -37.822  26.228  1.00  0.00     0.097 A 
BRANCH  19  22
ATOM     22  C   UNL     1       7.171 -36.536  25.495  1.00  0.00     0.139 A 
ATOM     23  C   UNL     1       6.370 -35.527  24.941  1.00  0.00     0.048 A 
ATOM     24  N   UNL     1       8.464 -36.295  25.818  1.00  0.00    -0.235 NA
ATOM     25  C   UNL     1       6.866 -34.256  24.706  1.00  0.00     0.006 A 
ATOM     26  C   UNL     1       8.983 -35.047  25.598  1.00  0.00     0.040 A 
ATOM     27  C   UNL     1       8.202 -34.053  25.055  1.00  0.00     0.023 A 
ATOM     28  C   UNL     1      10.401 -34.726  25.941  1.00  0.00     0.067 C 
ENDBRANCH  19  22
ENDBRANCH  13  15
ENDBRANCH   3  13
BRANCH   6  29
ATOM     29  C   UNL     1       7.913 -45.657  28.542  1.00  0.00     0.257 C 
ATOM     30  O   UNL     1       9.076 -45.246  28.341  1.00  0.00    -0.269 OA
ATOM     31  N   UNL     1       7.624 -46.315  29.778  1.00  0.00    -0.336 N 
ATOM     32  H   UNL     1       8.422 -45.477  25.164  1.00  0.00     0.164 HD
BRANCH  31  33
ATOM     33  C   UNL     1       8.594 -46.517  30.827  1.00  0.00     0.218 C 
ATOM     34  C   UNL     1       8.072 -47.420  31.924  1.00  0.00     0.101 C 
ATOM     35  C   UNL     1       8.661 -45.218  31.569  1.00  0.00     0.334 C 
ATOM     36  C   UNL     1       7.050 -46.520  32.591  1.00  0.00     0.272 C 
ATOM     37  N   UNL     1       7.518 -45.170  32.406  1.00  0.00    -0.272 N 
ATOM     38  O   UNL     1       9.491 -44.335  31.518  1.00  0.00    -0.229 OA
ATOM     39  C   UNL     1       7.852 -44.609  33.711  1.00  0.00     0.341 C 
ATOM     40  H   UNL     1       7.484 -48.341  25.477  1.00  0.00     0.356 HD
ENDBRANCH  31  33
ENDBRANCH   6  29
TORSDOF 6
ENDMDL
MODEL 3
REMARK VINA RESULT:   -10.422      4.766     10.578
REMARK INTER + INTRA:         -14.463
REMARK INTER:                 -13.658
REMARK INTRA:                  -0.805
REMARK UNBOUND:                -0.386
REMARK SMILES CNc1cc(Nc2cccn(-c3cccc(C)n3)c2=O)nc2c(C(=O)N[C@@H]3CC[N@@H+](C)C3=O)cnn12
REMARK SMILES IDX 3 1 4 2 5 3 21 4 22 5 23 6 34 7 35 8 36 9 2 10 1 11 6 13
REMARK SMILES IDX 7 15 8 16 19 17 9 18 11 19 20 20 10 21 12 22 13 23 18 24
REMARK SMILES IDX 14 25 16 26 15 27 17 28 24 29 25 30 26 31 27 33 28 34 32 35
REMARK SMILES IDX 29 36 30 37 33 38 31 39
REMARK H PARENT 2 12 6 14 26 32 30 40
ROOT
ATOM      1  C   UNL     1       7.471 -47.234  29.173  1.00  0.00     0.133 A 
ATOM      2  C   UNL     1       8.515 -47.745  28.464  1.00  0.00     0.094 A 
ATOM      3  C   UNL     1       8.816 -47.338  27.147  1.00  0.00     0.136 A 
ATOM      4  N   UNL     1       8.021 -46.414  26.614  1.00  0.00    -0.210 NA
ATOM      5  C   UNL     1       6.975 -45.898  27.311  1.00  0.00     0.172 A 
ATOM      6  C   UNL     1       6.012 -44.973  27.031  1.00  0.00     0.104 A 
ATOM      7  C   UNL     1       5.174 -44.842  28.154  1.00  0.00     0.152 A 
ATOM      8  N   UNL     1       5.652 -45.679  29.061  1.00  0.00    -0.172 NA
ATOM      9  N   UNL     1       6.706 -46.308  28.584  1.00  0.00    -0.198 N 
ENDROOT
BRANCH   1  10
ATOM     10  N   UNL     1       7.230 -47.706  30.494  1.00  0.00    -0.373 N 
ATOM     11  C   UNL     1       7.489 -49.130  30.720  1.00  0.00     0.141 C 
ATOM     12  H   UNL     1       8.494 -46.650  26.035  1.00  0.00     0.161 HD
ENDBRANCH   1  10
BRANCH   3  13
ATOM     13  N   UNL     1       9.916 -48.000  26.569  1.00  0.00    -0.336 N 
ATOM     14  H   UNL     1       7.975 -46.796  25.888  1.00  0.00     0.168 HD
BRANCH  13  15
ATOM     15  C   UNL     1       9.645 -48.988  25.578  1.00  0.00     0.106 A 
ATOM     16  C   UNL     1       8.862 -50.089  25.842  1.00  0.00     0.033 A 
ATOM     17  C   UNL     1      10.232 -48.912  24.304  1.00  0.00     0.279 A 
ATOM     18  C   UNL     1       8.638 -51.091  24.929  1.00  0.00     0.021 A 
ATOM     19  N   UNL     1      10.012 -49.905  23.402  1.00  0.00    -0.266 N 
ATOM     20  O   UNL     1      10.951 -47.920  24.035  1.00  0.00    -0.267 OA
ATOM     21  C   UNL     1       9.236 -50.974  23.690  1.00  0.00     0.097 A 
BRANCH  19  22
ATOM     22  C   UNL     1      10.664 -49.824  22.144  1.00  0.00     0.139 A 
ATOM     23  C   UNL     1      11.159 -51.039  21.649  1.00  0.00     0.048 A 
ATOM     24  N   UNL     1      10.809 -48.678  21.437  1.00  0.00    -0.235 NA
ATOM     25  C   UNL     1      11.808 -51.113  20.429  1.00  0.00     0.006 A 
ATOM     26  C   UNL     1      11.447 -48.719  20.226  1.00  0.00     0.040 A 
ATOM     27  C   UNL     1      11.934 -49.908  19.736  1.00  0.00     0.023 A 
ATOM     28  C   UNL     1      11.629 -47.484  19.404  1.00  0.00     0.067 C 
ENDBRANCH  19  22
ENDBRANCH  13  15
ENDBRANCH   3  13
BRANCH   6  29
ATOM     29  C   UNL     1       5.748 -44.200  25.827  1.00  0.00     0.257 C 
ATOM     30  O   UNL     1       5.198 -44.661  24.805  1.00  0.00    -0.269 OA
ATOM     31  N   UNL     1       6.144 -42.827  25.830  1.00  0.00    -0.336 N 
ATOM     32  H   UNL     1       6.264 -47.581  25.760  1.00  0.00     0.164 HD
BRANCH  31  33
ATOM     33  C   UNL     1       5.927 -41.925  24.726  1.00  0.00     0.218 C 
ATOM     34  C   UNL     1       7.073 -40.953  24.544  1.00  0.00     0.101 C 
ATOM     35  C   UNL     1       4.857 -40.981  25.181  1.00  0.00     0.334 C 
ATOM     36  C   UNL     1       6.892 -40.048  25.747  1.00  0.00     0.272 C 
ATOM     37  N   UNL     1       5.481 -40.043  26.041  1.00  0.00    -0.272 N 
ATOM     38  O   UNL     1       3.673 -40.959  24.914  1.00  0.00    -0.229 OA
ATOM     39  C   UNL     1       4.961 -38.700  25.811  1.00  0.00     0.341 C 
ATOM     40  H   UNL     1       7.519 -47.377  25.679  1.00  0.00     0.356 HD
ENDBRANCH  31  33
ENDBRANCH   6  29
TORSDOF 6
ENDMDL
MODEL 4
REMARK VINA RESULT:   -10.020      1.736      2.338
REMARK INTER + INTRA:         -13.920
REMARK INTER:                 -14.312
REMARK INTRA:                   0.392
REMARK UNBOUND:                -0.386
REMARK SMILES CNc1cc(Nc2cccn(-c3cccc(C)n3)c2=O)nc2c(C(=O)N[C@@H]3CC[N@@H+](C)C3=O)cnn12
REMARK SMILES IDX 3 1 4 2 5 3 21 4 22 5 23 6 34 7 35 8 36 9 2 10 1 11 6 13
REMARK SMILES IDX 7 15 8 16 19 17 9 18 11 19 20 20 10 21 12 22 13 23 18 24
REMARK SMILES IDX 14 25 16 26 15 27 17 28 24 29 25 30 26 31 27 33 28 34 32 35
REMARK SMILES IDX 29 36 30 37 33 38 31 39
REMARK H PARENT 2 12 6 14 26 32 30 40
ROOT
ATOM      1  C   UNL     1       4.808 -42.311  24.370  1.00  0.00     0.133 A 
ATOM      2  C   UNL     1       5.607 -41.220  24.219  1.00  0.00     0.094 A 
ATOM      3  C   UNL     1       6.850 -41.086  24.875  1.00  0.00     0.136 A 
ATOM      4  N   UNL     1       7.217 -42.094  25.663  1.00  0.00    -0.210 NA
ATOM      5  C   UNL     1       6.427 -43.187  25.823  1.00  0.00     0.172 A 
ATOM      6  C   UNL     1       6.533 -44.336  26.550  1.00  0.00     0.104 A 
ATOM      7  C   UNL     1       5.386 -45.120  26.323  1.00  0.00     0.152 A 
ATOM      8  N   UNL     1       4.637 -44.427  25.480  1.00  0.00    -0.172 NA
ATOM      9  N   UNL     1       5.230 -43.292  25.177  1.00  0.00    -0.198 N 
ENDROOT
BRANCH   1  10
ATOM     10  N   UNL     1       3.564 -42.362  23.680  1.00  0.00    -0.373 N 
ATOM     11  C   UNL     1       3.638 -42.681  22.253  1.00  0.00     0.141 C 
ATOM     12  H   UNL     1       7.948 -42.633  25.500  1.00  0.00     0.161 HD
ENDBRANCH   1  10
BRANCH   3  13
ATOM     13  N   UNL     1       7.520 -39.875  24.616  1.00  0.00    -0.336 N 
ATOM     14  H   UNL     1       6.350 -40.943  26.396  1.00  0.00     0.168 HD
BRANCH  13  15
ATOM     15  C   UNL     1       6.821 -38.663  24.889  1.00  0.00     0.106 A 
ATOM     16  C   UNL     1       5.448 -38.614  24.962  1.00  0.00     0.033 A 
ATOM     17  C   UNL     1       7.513 -37.448  25.025  1.00  0.00     0.279 A 
ATOM     18  C   UNL     1       4.744 -37.451  25.157  1.00  0.00     0.021 A 
ATOM     19  N   UNL     1       6.816 -36.296  25.216  1.00  0.00    -0.266 N 
ATOM     20  O   UNL     1       8.765 -37.461  24.964  1.00  0.00    -0.267 OA
ATOM     21  C   UNL     1       5.466 -36.280  25.284  1.00  0.00     0.097 A 
BRANCH  19  22
ATOM     22  C   UNL     1       7.542 -35.079  25.294  1.00  0.00     0.139 A 
ATOM     23  C   UNL     1       6.836 -33.936  24.893  1.00  0.00     0.048 A 
ATOM     24  N   UNL     1       8.821 -34.986  25.729  1.00  0.00    -0.235 NA
ATOM     25  C   UNL     1       7.414 -32.679  24.926  1.00  0.00     0.006 A 
ATOM     26  C   UNL     1       9.420 -33.755  25.774  1.00  0.00     0.040 A 
ATOM     27  C   UNL     1       8.732 -32.631  25.382  1.00  0.00     0.023 A 
ATOM     28  C   UNL     1      10.827 -33.596  26.251  1.00  0.00     0.067 C 
ENDBRANCH  19  22
ENDBRANCH  13  15
ENDBRANCH   3  13
BRANCH   6  29
ATOM     29  C   UNL     1       7.566 -44.800  27.463  1.00  0.00     0.257 C 
ATOM     30  O   UNL     1       8.788 -44.591  27.305  1.00  0.00    -0.269 OA
ATOM     31  N   UNL     1       7.142 -45.535  28.613  1.00  0.00    -0.336 N 
ATOM     32  H   UNL     1       8.151 -44.315  24.129  1.00  0.00     0.164 HD
BRANCH  31  33
ATOM     33  C   UNL     1       8.040 -46.038  29.623  1.00  0.00     0.218 C 
ATOM     34  C   UNL     1       8.640 -47.375  29.245  1.00  0.00     0.101 C 
ATOM     35  C   UNL     1       7.168 -46.458  30.765  1.00  0.00     0.334 C 
ATOM     36  C   UNL     1       7.440 -48.292  29.388  1.00  0.00     0.272 C 
ATOM     37  N   UNL     1       6.605 -47.708  30.408  1.00  0.00    -0.272 N 
ATOM     38  O   UNL     1       6.937 -45.896  31.816  1.00  0.00    -0.229 OA
ATOM     39  C   UNL     1       6.569 -48.610  31.554  1.00  0.00     0.341 C 
ATOM     40  H   UNL     1       7.960 -42.148  25.377  1.00  0.00     0.356 HD
ENDBRANCH  31  33
ENDBRANCH   6  29
TORSDOF 6
ENDMDL
MODEL 5
REMARK VINA RESULT:    -9.212      3.487      5.903
REMARK INTER + INTRA:         -12.830
REMARK INTER:                 -11.559
REMARK INTRA:                  -1.271
REMARK UNBOUND:                -0.386
REMARK SMILES CNc1cc(Nc2cccn(-c3cccc(C)n3)c2=O)nc2c(C(=O)N[C@@H]3CC[N@@H+](C)C3=O)cnn12
REMARK SMILES IDX 3 1 4 2 5 3 21 4 22 5 23 6 34 7 35 8 36 9 2 10 1 11 6 13
REMARK SMILES IDX 7 15 8 16 19 17 9 18 11 19 20 20 10 21 12 22 13 23 18 24
REMARK SMILES IDX 14 25 16 26 15 27 17 28 24 29 25 30 26 31 27 33 28 34 32 35
REMARK SMILES IDX 29 36 30 37 33 38 31 39
REMARK H PARENT 2 12 6 14 26 32 30 40
ROOT
ATOM      1  C   UNL     1      10.259 -39.802  26.001  1.00  0.00     0.133 A 
ATOM      2  C   UNL     1      10.273 -38.587  25.387  1.00  0.00     0.094 A 
ATOM      3  C   UNL     1       9.147 -38.052  24.726  1.00  0.00     0.136 A 
ATOM      4  N   UNL     1       8.046 -38.800  24.727  1.00  0.00    -0.210 NA
ATOM      5  C   UNL     1       8.020 -40.015  25.335  1.00  0.00     0.172 A 
ATOM      6  C   UNL     1       7.068 -40.979  25.489  1.00  0.00     0.104 A 
ATOM      7  C   UNL     1       7.622 -42.046  26.221  1.00  0.00     0.152 A 
ATOM      8  N   UNL     1       8.871 -41.695  26.481  1.00  0.00    -0.172 NA
ATOM      9  N   UNL     1       9.123 -40.509  25.969  1.00  0.00    -0.198 N 
ENDROOT
BRANCH   1  10
ATOM     10  N   UNL     1      11.442 -40.273  26.638  1.00  0.00    -0.373 N 
ATOM     11  C   UNL     1      11.916 -39.478  27.772  1.00  0.00     0.141 C 
ATOM     12  H   UNL     1       7.336 -38.415  25.126  1.00  0.00     0.161 HD
ENDBRANCH   1  10
BRANCH   3  13
ATOM     13  N   UNL     1       9.363 -36.797  24.128  1.00  0.00    -0.336 N 
ATOM     14  H   UNL     1       9.659 -37.862  26.238  1.00  0.00     0.168 HD
BRANCH  13  15
ATOM     15  C   UNL     1       8.827 -35.651  24.785  1.00  0.00     0.106 A 
ATOM     16  C   UNL     1       7.493 -35.323  24.706  1.00  0.00     0.033 A 
ATOM     17  C   UNL     1       9.663 -34.766  25.486  1.00  0.00     0.279 A 
ATOM     18  C   UNL     1       6.960 -34.191  25.273  1.00  0.00     0.021 A 
ATOM     19  N   UNL     1       9.136 -33.644  26.045  1.00  0.00    -0.266 N 
ATOM     20  O   UNL     1      10.883 -35.039  25.575  1.00  0.00    -0.267 OA
ATOM     21  C   UNL     1       7.819 -33.349  25.951  1.00  0.00     0.097 A 
BRANCH  19  22
ATOM     22  C   UNL     1      10.016 -32.744  26.699  1.00  0.00     0.139 A 
ATOM     23  C   UNL     1      10.341 -31.591  25.970  1.00  0.00     0.048 A 
ATOM     24  N   UNL     1      10.519 -32.942  27.940  1.00  0.00    -0.235 NA
ATOM     25  C   UNL     1      11.181 -30.620  26.487  1.00  0.00     0.006 A 
ATOM     26  C   UNL     1      11.353 -31.999  28.479  1.00  0.00     0.040 A 
ATOM     27  C   UNL     1      11.675 -30.866  27.769  1.00  0.00     0.023 A 
ATOM     28  C   UNL     1      11.931 -32.166  29.847  1.00  0.00     0.067 C 
ENDBRANCH  19  22
ENDBRANCH  13  15
ENDBRANCH   3  13
BRANCH   6  29
ATOM     29  C   UNL     1       5.695 -41.053  25.014  1.00  0.00     0.257 C 
ATOM     30  O   UNL     1       4.775 -40.307  25.410  1.00  0.00    -0.269 OA
ATOM     31  N   UNL     1       5.396 -42.044  24.028  1.00  0.00    -0.336 N 
ATOM     32  H   UNL     1       6.495 -39.929  28.143  1.00  0.00     0.164 HD
BRANCH  31  33
ATOM     33  C   UNL     1       4.091 -42.225  23.440  1.00  0.00     0.218 C 
ATOM     34  C   UNL     1       3.220 -43.160  24.251  1.00  0.00     0.101 C 
ATOM     35  C   UNL     1       4.312 -43.067  22.221  1.00  0.00     0.334 C 
ATOM     36  C   UNL     1       3.888 -44.496  23.985  1.00  0.00     0.272 C 
ATOM     37  N   UNL     1       4.476 -44.400  22.673  1.00  0.00    -0.272 N 
ATOM     38  O   UNL     1       4.356 -42.746  21.052  1.00  0.00    -0.229 OA
ATOM     39  C   UNL     1       3.795 -45.337  21.787  1.00  0.00     0.341 C 
ATOM     40  H   UNL     1       6.995 -38.339  26.546  1.00  0.00     0.356 HD
ENDBRANCH  31  33
ENDBRANCH   6  29
TORSDOF 6
ENDMDL
