MODEL 1
REMARK VINA RESULT:   -10.602      0.000      0.000
REMARK INTER + INTRA:         -15.058
REMARK INTER:                 -14.631
REMARK INTRA:                  -0.427
REMARK UNBOUND:                -0.427
REMARK SMILES CNc1cc(Nc2cccn(-c3cncc(F)c3)c2=O)nc2c(C(=O)N[C@H]3CC[C@@H]3O)cnn12
REMARK SMILES IDX 3 1 4 2 5 3 21 4 22 5 23 6 32 7 33 8 34 9 2 10 1 11 6 13
REMARK SMILES IDX 7 15 8 16 19 17 9 18 11 19 20 20 10 21 12 22 13 23 18 24
REMARK SMILES IDX 14 25 16 26 15 27 17 28 24 29 25 30 26 31 27 33 28 34 30 35
REMARK SMILES IDX 29 36 31 37
REMARK H PARENT 2 12 6 14 26 32 31 38
ROOT
ATOM      1  C   UNL     1       5.139 -42.273  23.382  1.00  0.00     0.133 A 
ATOM      2  C   UNL     1       5.686 -41.140  23.972  1.00  0.00     0.094 A 
ATOM      3  C   UNL     1       6.074 -41.108  25.286  1.00  0.00     0.136 A 
ATOM      4  N   UNL     1       5.895 -42.259  25.984  1.00  0.00    -0.210 NA
ATOM      5  C   UNL     1       5.370 -43.350  25.426  1.00  0.00     0.172 A 
ATOM      6  C   UNL     1       5.111 -44.596  25.990  1.00  0.00     0.104 A 
ATOM      7  C   UNL     1       4.562 -45.334  24.975  1.00  0.00     0.152 A 
ATOM      8  N   UNL     1       4.502 -44.559  23.853  1.00  0.00    -0.172 NA
ATOM      9  N   UNL     1       4.991 -43.367  24.138  1.00  0.00    -0.198 N 
ENDROOT
BRANCH   1  10
ATOM     10  N   UNL     1       4.748 -42.266  22.020  1.00  0.00    -0.373 N 
ATOM     11  C   UNL     1       3.406 -42.636  21.590  1.00  0.00     0.141 C 
ATOM     12  H   UNL     1       6.463 -42.063  25.328  1.00  0.00     0.161 HD
ENDBRANCH   1  10
BRANCH   3  13
ATOM     13  N   UNL     1       6.633 -40.020  25.956  1.00  0.00    -0.336 N 
ATOM     14  H   UNL     1       5.776 -41.449  25.472  1.00  0.00     0.168 HD
BRANCH  13  15
ATOM     15  C   UNL     1       7.574 -39.080  25.526  1.00  0.00     0.106 A 
ATOM     16  C   UNL     1       8.742 -39.617  24.944  1.00  0.00     0.033 A 
ATOM     17  C   UNL     1       7.500 -37.719  25.615  1.00  0.00     0.278 A 
ATOM     18  C   UNL     1       9.756 -38.798  24.493  1.00  0.00     0.021 A 
ATOM     19  N   UNL     1       8.476 -36.930  25.178  1.00  0.00    -0.281 N 
ATOM     20  O   UNL     1       6.483 -37.182  26.126  1.00  0.00    -0.267 OA
ATOM     21  C   UNL     1       9.608 -37.451  24.617  1.00  0.00     0.095 A 
BRANCH  19  22
ATOM     22  C   UNL     1       8.455 -35.502  25.214  1.00  0.00     0.070 A 
ATOM     23  C   UNL     1       9.549 -34.805  25.664  1.00  0.00     0.137 A 
ATOM     24  C   UNL     1       7.330 -34.770  24.843  1.00  0.00     0.069 A 
ATOM     25  N   UNL     1       9.556 -33.459  25.749  1.00  0.00    -0.259 NA
ATOM     26  C   UNL     1       7.335 -33.395  24.927  1.00  0.00     0.143 A 
ATOM     27  C   UNL     1       8.473 -32.729  25.390  1.00  0.00     0.150 A 
ATOM     28  F   UNL     1       6.262 -32.635  24.582  1.00  0.00    -0.205 F 
ENDBRANCH  19  22
ENDBRANCH  13  15
ENDBRANCH   3  13
BRANCH   6  29
ATOM     29  C   UNL     1       5.398 -44.985  27.363  1.00  0.00     0.257 C 
ATOM     30  O   UNL     1       4.518 -44.911  28.289  1.00  0.00    -0.269 OA
ATOM     31  N   UNL     1       6.737 -45.469  27.657  1.00  0.00    -0.347 N 
ATOM     32  H   UNL     1       2.300 -43.060  25.812  1.00  0.00     0.164 HD
BRANCH  31  33
ATOM     33  C   UNL     1       7.108 -45.880  28.996  1.00  0.00     0.111 C 
ATOM     34  C   UNL     1       6.959 -47.291  29.374  1.00  0.00     0.030 C 
ATOM     35  C   UNL     1       8.645 -46.062  29.120  1.00  0.00     0.136 C 
ATOM     36  C   UNL     1       8.317 -47.187  30.094  1.00  0.00     0.036 C 
BRANCH  35  37
ATOM     37  O   UNL     1       9.268 -45.033  29.825  1.00  0.00    -0.391 OA
ATOM     38  H   UNL     1      10.966 -49.456  34.571  1.00  0.00     0.211 HD
ENDBRANCH  35  37
ENDBRANCH  31  33
ENDBRANCH   6  29
TORSDOF 7
ENDMDL
MODEL 2
REMARK VINA RESULT:    -9.744      4.004      9.350
REMARK INTER + INTRA:         -13.873
REMARK INTER:                 -12.980
REMARK INTRA:                  -0.893
REMARK UNBOUND:                -0.427
REMARK SMILES CNc1cc(Nc2cccn(-c3cncc(F)c3)c2=O)nc2c(C(=O)N[C@H]3CC[C@@H]3O)cnn12
REMARK SMILES IDX 3 1 4 2 5 3 21 4 22 5 23 6 32 7 33 8 34 9 2 10 1 11 6 13
REMARK SMILES IDX 7 15 8 16 19 17 9 18 11 19 20 20 10 21 12 22 13 23 18 24
REMARK SMILES IDX 14 25 16 26 15 27 17 28 24 29 25 30 26 31 27 33 28 34 30 35
REMARK SMILES IDX 29 36 31 37
REMARK H PARENT 2 12 6 14 26 32 31 38
ROOT
ATOM      1  C   UNL     1       4.605 -44.871  25.173  1.00  0.00     0.133 A 
ATOM      2  C   UNL     1       5.526 -45.497  26.003  1.00  0.00     0.094 A 
ATOM      3  C   UNL     1       6.524 -44.810  26.646  1.00  0.00     0.136 A 
ATOM      4  N   UNL     1       6.557 -43.471  26.425  1.00  0.00    -0.210 NA
ATOM      5  C   UNL     1       5.678 -42.863  25.629  1.00  0.00     0.172 A 
ATOM      6  C   UNL     1       5.574 -41.517  25.288  1.00  0.00     0.104 A 
ATOM      7  C   UNL     1       4.504 -41.453  24.435  1.00  0.00     0.152 A 
ATOM      8  N   UNL     1       3.992 -42.708  24.279  1.00  0.00    -0.172 NA
ATOM      9  N   UNL     1       4.707 -43.548  25.003  1.00  0.00    -0.198 N 
ENDROOT
BRANCH   1  10
ATOM     10  N   UNL     1       3.589 -45.616  24.525  1.00  0.00    -0.373 N 
ATOM     11  C   UNL     1       3.673 -45.995  23.119  1.00  0.00     0.141 C 
ATOM     12  H   UNL     1       5.799 -43.706  26.846  1.00  0.00     0.161 HD
ENDBRANCH   1  10
BRANCH   3  13
ATOM     13  N   UNL     1       7.485 -45.354  27.497  1.00  0.00    -0.336 N 
ATOM     14  H   UNL     1       6.598 -44.606  26.207  1.00  0.00     0.168 HD
BRANCH  13  15
ATOM     15  C   UNL     1       7.365 -45.846  28.800  1.00  0.00     0.106 A 
ATOM     16  C   UNL     1       6.183 -46.567  29.067  1.00  0.00     0.033 A 
ATOM     17  C   UNL     1       8.243 -45.697  29.836  1.00  0.00     0.278 A 
ATOM     18  C   UNL     1       5.933 -47.092  30.319  1.00  0.00     0.021 A 
ATOM     19  N   UNL     1       8.004 -46.205  31.040  1.00  0.00    -0.281 N 
ATOM     20  O   UNL     1       9.315 -45.061  29.659  1.00  0.00    -0.267 OA
ATOM     21  C   UNL     1       6.857 -46.902  31.299  1.00  0.00     0.095 A 
BRANCH  19  22
ATOM     22  C   UNL     1       8.887 -46.112  32.159  1.00  0.00     0.070 A 
ATOM     23  C   UNL     1       8.945 -44.957  32.901  1.00  0.00     0.137 A 
ATOM     24  C   UNL     1       9.743 -47.152  32.515  1.00  0.00     0.069 A 
ATOM     25  N   UNL     1       9.792 -44.816  33.942  1.00  0.00    -0.259 NA
ATOM     26  C   UNL     1      10.607 -47.010  33.578  1.00  0.00     0.143 A 
ATOM     27  C   UNL     1      10.630 -45.817  34.305  1.00  0.00     0.150 A 
ATOM     28  F   UNL     1      11.465 -47.992  33.962  1.00  0.00    -0.205 F 
ENDBRANCH  19  22
ENDBRANCH  13  15
ENDBRANCH   3  13
BRANCH   6  29
ATOM     29  C   UNL     1       6.430 -40.447  25.777  1.00  0.00     0.257 C 
ATOM     30  O   UNL     1       6.130 -39.754  26.810  1.00  0.00    -0.269 OA
ATOM     31  N   UNL     1       7.657 -40.181  25.045  1.00  0.00    -0.347 N 
ATOM     32  H   UNL     1       2.725 -41.452  26.762  1.00  0.00     0.164 HD
BRANCH  31  33
ATOM     33  C   UNL     1       8.569 -39.137  25.463  1.00  0.00     0.111 C 
ATOM     34  C   UNL     1       9.878 -39.028  24.807  1.00  0.00     0.030 C 
ATOM     35  C   UNL     1       8.192 -37.774  24.822  1.00  0.00     0.136 C 
ATOM     36  C   UNL     1       9.690 -37.500  24.801  1.00  0.00     0.036 C 
BRANCH  35  37
ATOM     37  O   UNL     1       7.591 -36.889  25.716  1.00  0.00    -0.391 OA
ATOM     38  H   UNL     1      11.011 -31.867  22.879  1.00  0.00     0.211 HD
ENDBRANCH  35  37
ENDBRANCH  31  33
ENDBRANCH   6  29
TORSDOF 7
ENDMDL
MODEL 3
REMARK VINA RESULT:    -9.656      3.832      6.761
REMARK INTER + INTRA:         -13.752
REMARK INTER:                 -12.764
REMARK INTRA:                  -0.988
REMARK UNBOUND:                -0.427
REMARK SMILES CNc1cc(Nc2cccn(-c3cncc(F)c3)c2=O)nc2c(C(=O)N[C@H]3CC[C@@H]3O)cnn12
REMARK SMILES IDX 3 1 4 2 5 3 21 4 22 5 23 6 32 7 33 8 34 9 2 10 1 11 6 13
REMARK SMILES IDX 7 15 8 16 19 17 9 18 11 19 20 20 10 21 12 22 13 23 18 24
REMARK SMILES IDX 14 25 16 26 15 27 17 28 24 29 25 30 26 31 27 33 28 34 30 35
REMARK SMILES IDX 29 36 31 37
REMARK H PARENT 2 12 6 14 26 32 31 38
ROOT
ATOM      1  C   UNL     1       6.831 -46.384  29.101  1.00  0.00     0.133 A 
ATOM      2  C   UNL     1       5.833 -45.940  28.244  1.00  0.00     0.094 A 
ATOM      3  C   UNL     1       5.990 -45.915  26.882  1.00  0.00     0.136 A 
ATOM      4  N   UNL     1       7.186 -46.357  26.416  1.00  0.00    -0.210 NA
ATOM      5  C   UNL     1       8.149 -46.783  27.233  1.00  0.00     0.172 A 
ATOM      6  C   UNL     1       9.423 -47.256  26.929  1.00  0.00     0.104 A 
ATOM      7  C   UNL     1       9.990 -47.543  28.143  1.00  0.00     0.152 A 
ATOM      8  N   UNL     1       9.088 -47.256  29.126  1.00  0.00    -0.172 NA
ATOM      9  N   UNL     1       7.985 -46.800  28.565  1.00  0.00    -0.198 N 
ENDROOT
BRANCH   1  10
ATOM     10  N   UNL     1       6.632 -46.392  30.504  1.00  0.00    -0.373 N 
ATOM     11  C   UNL     1       6.068 -47.538  31.207  1.00  0.00     0.141 C 
ATOM     12  H   UNL     1       7.417 -45.654  26.932  1.00  0.00     0.161 HD
ENDBRANCH   1  10
BRANCH   3  13
ATOM     13  N   UNL     1       5.044 -45.490  25.949  1.00  0.00    -0.336 N 
ATOM     14  H   UNL     1       5.966 -46.312  27.168  1.00  0.00     0.168 HD
BRANCH  13  15
ATOM     15  C   UNL     1       4.989 -44.320  25.186  1.00  0.00     0.106 A 
ATOM     16  C   UNL     1       4.464 -44.470  23.886  1.00  0.00     0.033 A 
ATOM     17  C   UNL     1       5.394 -43.065  25.547  1.00  0.00     0.278 A 
ATOM     18  C   UNL     1       4.370 -43.396  23.025  1.00  0.00     0.021 A 
ATOM     19  N   UNL     1       5.301 -42.031  24.719  1.00  0.00    -0.281 N 
ATOM     20  O   UNL     1       5.873 -42.870  26.695  1.00  0.00    -0.267 OA
ATOM     21  C   UNL     1       4.794 -42.177  23.458  1.00  0.00     0.095 A 
BRANCH  19  22
ATOM     22  C   UNL     1       5.679 -40.690  25.036  1.00  0.00     0.070 A 
ATOM     23  C   UNL     1       4.786 -39.847  25.652  1.00  0.00     0.137 A 
ATOM     24  C   UNL     1       6.930 -40.176  24.704  1.00  0.00     0.069 A 
ATOM     25  N   UNL     1       5.090 -38.564  25.935  1.00  0.00    -0.259 NA
ATOM     26  C   UNL     1       7.243 -38.866  24.994  1.00  0.00     0.143 A 
ATOM     27  C   UNL     1       6.302 -38.046  25.623  1.00  0.00     0.150 A 
ATOM     28  F   UNL     1       8.447 -38.314  24.687  1.00  0.00    -0.205 F 
ENDBRANCH  19  22
ENDBRANCH  13  15
ENDBRANCH   3  13
BRANCH   6  29
ATOM     29  C   UNL     1       9.978 -47.411  25.592  1.00  0.00     0.257 C 
ATOM     30  O   UNL     1      10.579 -46.454  24.991  1.00  0.00    -0.269 OA
ATOM     31  N   UNL     1       9.825 -48.704  24.948  1.00  0.00    -0.347 N 
ATOM     32  H   UNL     1       9.424 -44.170  27.806  1.00  0.00     0.164 HD
BRANCH  31  33
ATOM     33  C   UNL     1      10.349 -48.946  23.619  1.00  0.00     0.111 C 
ATOM     34  C   UNL     1      11.777 -49.250  23.461  1.00  0.00     0.030 C 
ATOM     35  C   UNL     1      10.042 -50.395  23.151  1.00  0.00     0.136 C 
ATOM     36  C   UNL     1      11.381 -50.322  22.429  1.00  0.00     0.036 C 
BRANCH  35  37
ATOM     37  O   UNL     1       9.026 -50.464  22.198  1.00  0.00    -0.391 OA
ATOM     38  H   UNL     1       5.078 -53.372  26.773  1.00  0.00     0.211 HD
ENDBRANCH  35  37
ENDBRANCH  31  33
ENDBRANCH   6  29
TORSDOF 7
ENDMDL
MODEL 4
REMARK VINA RESULT:    -8.806      4.204      9.961
REMARK INTER + INTRA:         -12.578
REMARK INTER:                 -11.915
REMARK INTRA:                  -0.663
REMARK UNBOUND:                -0.427
REMARK SMILES CNc1cc(Nc2cccn(-c3cncc(F)c3)c2=O)nc2c(C(=O)N[C@H]3CC[C@@H]3O)cnn12
REMARK SMILES IDX 3 1 4 2 5 3 21 4 22 5 23 6 32 7 33 8 34 9 2 10 1 11 6 13
REMARK SMILES IDX 7 15 8 16 19 17 9 18 11 19 20 20 10 21 12 22 13 23 18 24
REMARK SMILES IDX 14 25 16 26 15 27 17 28 24 29 25 30 26 31 27 33 28 34 30 35
REMARK SMILES IDX 29 36 31 37
REMARK H PARENT 2 12 6 14 26 32 31 38
ROOT
ATOM      1  C   UNL     1       4.518 -44.197  24.788  1.00  0.00     0.133 A 
ATOM      2  C   UNL     1       5.120 -44.893  25.828  1.00  0.00     0.094 A 
ATOM      3  C   UNL     1       6.171 -44.382  26.544  1.00  0.00     0.136 A 
ATOM      4  N   UNL     1       6.592 -43.145  26.176  1.00  0.00    -0.210 NA
ATOM      5  C   UNL     1       6.021 -42.471  25.178  1.00  0.00     0.172 A 
ATOM      6  C   UNL     1       6.327 -41.212  24.669  1.00  0.00     0.104 A 
ATOM      7  C   UNL     1       5.436 -41.020  23.647  1.00  0.00     0.152 A 
ATOM      8  N   UNL     1       4.630 -42.118  23.556  1.00  0.00    -0.172 NA
ATOM      9  N   UNL     1       4.993 -42.984  24.482  1.00  0.00    -0.198 N 
ENDROOT
BRANCH   1  10
ATOM     10  N   UNL     1       3.433 -44.760  24.070  1.00  0.00    -0.373 N 
ATOM     11  C   UNL     1       3.547 -46.016  23.339  1.00  0.00     0.141 C 
ATOM     12  H   UNL     1       5.787 -42.714  26.118  1.00  0.00     0.161 HD
ENDBRANCH   1  10
BRANCH   3  13
ATOM     13  N   UNL     1       6.831 -45.007  27.602  1.00  0.00    -0.336 N 
ATOM     14  H   UNL     1       6.000 -43.923  26.531  1.00  0.00     0.168 HD
BRANCH  13  15
ATOM     15  C   UNL     1       7.240 -46.336  27.754  1.00  0.00     0.106 A 
ATOM     16  C   UNL     1       6.609 -47.046  28.796  1.00  0.00     0.033 A 
ATOM     17  C   UNL     1       8.178 -47.012  27.026  1.00  0.00     0.278 A 
ATOM     18  C   UNL     1       6.934 -48.361  29.062  1.00  0.00     0.021 A 
ATOM     19  N   UNL     1       8.489 -48.278  27.280  1.00  0.00    -0.281 N 
ATOM     20  O   UNL     1       8.776 -46.428  26.083  1.00  0.00    -0.267 OA
ATOM     21  C   UNL     1       7.879 -48.966  28.292  1.00  0.00     0.095 A 
BRANCH  19  22
ATOM     22  C   UNL     1       9.437 -49.053  26.545  1.00  0.00     0.070 A 
ATOM     23  C   UNL     1      10.549 -49.561  27.172  1.00  0.00     0.137 A 
ATOM     24  C   UNL     1       9.300 -49.288  25.179  1.00  0.00     0.069 A 
ATOM     25  N   UNL     1      11.487 -50.266  26.506  1.00  0.00    -0.259 NA
ATOM     26  C   UNL     1      10.256 -50.009  24.498  1.00  0.00     0.143 A 
ATOM     27  C   UNL     1      11.371 -50.507  25.178  1.00  0.00     0.150 A 
ATOM     28  F   UNL     1      10.173 -50.261  23.165  1.00  0.00    -0.205 F 
ENDBRANCH  19  22
ENDBRANCH  13  15
ENDBRANCH   3  13
BRANCH   6  29
ATOM     29  C   UNL     1       7.368 -40.324  25.166  1.00  0.00     0.257 C 
ATOM     30  O   UNL     1       8.397 -40.763  25.788  1.00  0.00    -0.269 OA
ATOM     31  N   UNL     1       7.203 -38.899  24.932  1.00  0.00    -0.347 N 
ATOM     32  H   UNL     1       6.711 -44.174  25.841  1.00  0.00     0.164 HD
BRANCH  31  33
ATOM     33  C   UNL     1       8.192 -37.945  25.389  1.00  0.00     0.111 C 
ATOM     34  C   UNL     1       9.380 -37.699  24.562  1.00  0.00     0.030 C 
ATOM     35  C   UNL     1       7.745 -36.488  25.089  1.00  0.00     0.136 C 
ATOM     36  C   UNL     1       9.226 -36.199  24.879  1.00  0.00     0.036 C 
BRANCH  35  37
ATOM     37  O   UNL     1       7.314 -35.798  26.222  1.00  0.00    -0.391 OA
ATOM     38  H   UNL     1       0.971 -36.821  24.302  1.00  0.00     0.211 HD
ENDBRANCH  35  37
ENDBRANCH  31  33
ENDBRANCH   6  29
TORSDOF 7
ENDMDL
MODEL 5
REMARK VINA RESULT:    -8.382      3.767      9.970
REMARK INTER + INTRA:         -11.994
REMARK INTER:                 -11.584
REMARK INTRA:                  -0.410
REMARK UNBOUND:                -0.427
REMARK SMILES CNc1cc(Nc2cccn(-c3cncc(F)c3)c2=O)nc2c(C(=O)N[C@H]3CC[C@@H]3O)cnn12
REMARK SMILES IDX 3 1 4 2 5 3 21 4 22 5 23 6 32 7 33 8 34 9 2 10 1 11 6 13
REMARK SMILES IDX 7 15 8 16 19 17 9 18 11 19 20 20 10 21 12 22 13 23 18 24
REMARK SMILES IDX 14 25 16 26 15 27 17 28 24 29 25 30 26 31 27 33 28 34 30 35
REMARK SMILES IDX 29 36 31 37
REMARK H PARENT 2 12 6 14 26 32 31 38
ROOT
ATOM      1  C   UNL     1      10.903 -38.756  26.341  1.00  0.00     0.133 A 
ATOM      2  C   UNL     1       9.808 -39.204  25.613  1.00  0.00     0.094 A 
ATOM      3  C   UNL     1       8.858 -38.352  25.113  1.00  0.00     0.136 A 
ATOM      4  N   UNL     1       9.052 -37.033  25.370  1.00  0.00    -0.210 NA
ATOM      5  C   UNL     1      10.099 -36.595  26.070  1.00  0.00     0.172 A 
ATOM      6  C   UNL     1      10.443 -35.295  26.429  1.00  0.00     0.104 A 
ATOM      7  C   UNL     1      11.602 -35.424  27.148  1.00  0.00     0.152 A 
ATOM      8  N   UNL     1      11.934 -36.747  27.208  1.00  0.00    -0.172 NA
ATOM      9  N   UNL     1      11.022 -37.440  26.556  1.00  0.00    -0.198 N 
ENDROOT
BRANCH   1  10
ATOM     10  N   UNL     1      11.864 -39.669  26.843  1.00  0.00    -0.373 N 
ATOM     11  C   UNL     1      11.908 -41.065  26.427  1.00  0.00     0.141 C 
ATOM     12  H   UNL     1       9.684 -36.763  25.991  1.00  0.00     0.161 HD
ENDBRANCH   1  10
BRANCH   3  13
ATOM     13  N   UNL     1       7.733 -38.713  24.372  1.00  0.00    -0.336 N 
ATOM     14  H   UNL     1       9.264 -38.134  24.948  1.00  0.00     0.168 HD
BRANCH  13  15
ATOM     15  C   UNL     1       6.596 -39.435  24.748  1.00  0.00     0.106 A 
ATOM     16  C   UNL     1       5.653 -38.720  25.514  1.00  0.00     0.033 A 
ATOM     17  C   UNL     1       6.305 -40.741  24.473  1.00  0.00     0.278 A 
ATOM     18  C   UNL     1       4.494 -39.321  25.962  1.00  0.00     0.021 A 
ATOM     19  N   UNL     1       5.188 -41.319  24.903  1.00  0.00    -0.281 N 
ATOM     20  O   UNL     1       7.111 -41.431  23.794  1.00  0.00    -0.267 OA
ATOM     21  C   UNL     1       4.275 -40.626  25.647  1.00  0.00     0.095 A 
BRANCH  19  22
ATOM     22  C   UNL     1       4.807 -42.669  24.631  1.00  0.00     0.070 A 
ATOM     23  C   UNL     1       4.673 -43.570  25.659  1.00  0.00     0.137 A 
ATOM     24  C   UNL     1       4.599 -43.132  23.334  1.00  0.00     0.069 A 
ATOM     25  N   UNL     1       4.351 -44.862  25.442  1.00  0.00    -0.259 NA
ATOM     26  C   UNL     1       4.268 -44.450  23.111  1.00  0.00     0.143 A 
ATOM     27  C   UNL     1       4.142 -45.331  24.188  1.00  0.00     0.150 A 
ATOM     28  F   UNL     1       4.060 -44.953  21.865  1.00  0.00    -0.205 F 
ENDBRANCH  19  22
ENDBRANCH  13  15
ENDBRANCH   3  13
BRANCH   6  29
ATOM     29  C   UNL     1       9.706 -34.091  26.075  1.00  0.00     0.257 C 
ATOM     30  O   UNL     1      10.293 -33.030  25.665  1.00  0.00    -0.269 OA
ATOM     31  N   UNL     1       8.259 -34.127  26.204  1.00  0.00    -0.347 N 
ATOM     32  H   UNL     1      13.590 -34.694  26.580  1.00  0.00     0.164 HD
BRANCH  31  33
ATOM     33  C   UNL     1       7.448 -32.974  25.870  1.00  0.00     0.111 C 
ATOM     34  C   UNL     1       7.745 -32.225  24.644  1.00  0.00     0.030 C 
ATOM     35  C   UNL     1       6.104 -33.404  25.221  1.00  0.00     0.136 C 
ATOM     36  C   UNL     1       6.228 -32.129  24.396  1.00  0.00     0.036 C 
BRANCH  35  37
ATOM     37  O   UNL     1       5.010 -33.274  26.076  1.00  0.00    -0.391 OA
ATOM     38  H   UNL     1       2.025 -38.339  22.850  1.00  0.00     0.211 HD
ENDBRANCH  35  37
ENDBRANCH  31  33
ENDBRANCH   6  29
TORSDOF 7
ENDMDL
