REMARK SMILES CNc1cc(Nc2cccn(-c3cccc(C)n3)c2=O)nc2c(C(=O)N[C@@H]3CC[N@@H+](C)C3=O)cnn12
REMARK SMILES IDX 3 1 4 2 5 3 21 4 22 5 23 6 34 7 35 8 36 9 2 10 1 11 6 13
REMARK SMILES IDX 7 15 8 16 19 17 9 18 11 19 20 20 10 21 12 22 13 23 18 24
REMARK SMILES IDX 14 25 16 26 15 27 17 28 24 29 25 30 26 31 27 33 28 34 32 35
REMARK SMILES IDX 29 36 30 37 33 38 31 39
REMARK H PARENT 2 12 6 14 26 32 30 40
ROOT
ATOM      1  C   UNL     1       0.787  -3.258  -0.060  1.00  0.00     0.133 A 
ATOM      2  C   UNL     1      -0.386  -2.726  -0.500  1.00  0.00     0.094 A 
ATOM      3  C   UNL     1      -0.577  -1.339  -0.678  1.00  0.00     0.136 A 
ATOM      4  N   UNL     1       0.460  -0.555  -0.392  1.00  0.00    -0.210 NA
ATOM      5  C   UNL     1       1.635  -1.074   0.049  1.00  0.00     0.172 A 
ATOM      6  C   UNL     1       2.832  -0.534   0.418  1.00  0.00     0.104 A 
ATOM      7  C   UNL     1       3.698  -1.576   0.798  1.00  0.00     0.152 A 
ATOM      8  N   UNL     1       3.005  -2.694   0.648  1.00  0.00    -0.172 NA
ATOM      9  N   UNL     1       1.794  -2.419   0.212  1.00  0.00    -0.198 N 
ENDROOT
BRANCH   1  10
ATOM     10  N   UNL     1       0.894  -4.668   0.102  1.00  0.00    -0.373 N 
ATOM     11  C   UNL     1       0.391  -5.205   1.368  1.00  0.00     0.141 C 
ATOM     12  H   UNL     1       0.000   0.000   0.000  1.00  0.00     0.161 HD
ENDBRANCH   1  10
BRANCH   3  13
ATOM     13  N   UNL     1      -1.866  -0.978  -1.113  1.00  0.00    -0.336 N 
ATOM     14  H   UNL     1       0.000   0.000   0.000  1.00  0.00     0.168 HD
BRANCH  13  15
ATOM     15  C   UNL     1      -2.742  -0.383  -0.159  1.00  0.00     0.106 A 
ATOM     16  C   UNL     1      -2.311  -0.010   1.093  1.00  0.00     0.033 A 
ATOM     17  C   UNL     1      -4.109  -0.219  -0.440  1.00  0.00     0.279 A 
ATOM     18  C   UNL     1      -3.145   0.504   2.056  1.00  0.00     0.021 A 
ATOM     19  N   UNL     1      -4.935   0.287   0.514  1.00  0.00    -0.266 N 
ATOM     20  O   UNL     1      -4.531  -0.550  -1.573  1.00  0.00    -0.267 OA
ATOM     21  C   UNL     1      -4.481   0.646   1.736  1.00  0.00     0.097 A 
BRANCH  19  22
ATOM     22  C   UNL     1      -6.319   0.388   0.217  1.00  0.00     0.139 A 
ATOM     23  C   UNL     1      -6.944  -0.817  -0.134  1.00  0.00     0.048 A 
ATOM     24  N   UNL     1      -7.023   1.544   0.268  1.00  0.00    -0.235 NA
ATOM     25  C   UNL     1      -8.293  -0.871  -0.439  1.00  0.00     0.006 A 
ATOM     26  C   UNL     1      -8.360   1.522  -0.028  1.00  0.00     0.040 A 
ATOM     27  C   UNL     1      -8.978   0.343  -0.373  1.00  0.00     0.023 A 
ATOM     28  C   UNL     1      -9.184   2.768   0.018  1.00  0.00     0.067 C 
ENDBRANCH  19  22
ENDBRANCH  13  15
ENDBRANCH   3  13
BRANCH   6  29
ATOM     29  C   UNL     1       3.277   0.849   0.490  1.00  0.00     0.257 C 
ATOM     30  O   UNL     1       2.563   1.796   0.883  1.00  0.00    -0.269 OA
ATOM     31  N   UNL     1       4.620   1.127   0.087  1.00  0.00    -0.336 N 
ATOM     32  H   UNL     1       0.000   0.000   0.000  1.00  0.00     0.164 HD
BRANCH  31  33
ATOM     33  C   UNL     1       5.216   2.440   0.126  1.00  0.00     0.218 C 
ATOM     34  C   UNL     1       5.746   2.871  -1.225  1.00  0.00     0.101 C 
ATOM     35  C   UNL     1       6.505   2.275   0.870  1.00  0.00     0.334 C 
ATOM     36  C   UNL     1       6.954   1.966  -1.374  1.00  0.00     0.272 C 
ATOM     37  N   UNL     1       7.428   1.701  -0.039  1.00  0.00    -0.272 N 
ATOM     38  O   UNL     1       6.781   2.551   2.019  1.00  0.00    -0.229 OA
ATOM     39  C   UNL     1       8.750   2.299   0.114  1.00  0.00     0.341 C 
ATOM     40  H   UNL     1       0.000   0.000   0.000  1.00  0.00     0.356 HD
ENDBRANCH  31  33
ENDBRANCH   6  29
TORSDOF 6
