REMARK SMILES CNc1cc(Nc2cccn(-c3cncc(F)c3)c2=O)nc2c(C(=O)N[C@H]3CC[C@@H]3O)cnn12
REMARK SMILES IDX 3 1 4 2 5 3 21 4 22 5 23 6 32 7 33 8 34 9 2 10 1 11 6 13
REMARK SMILES IDX 7 15 8 16 19 17 9 18 11 19 20 20 10 21 12 22 13 23 18 24
REMARK SMILES IDX 14 25 16 26 15 27 17 28 24 29 25 30 26 31 27 33 28 34 30 35
REMARK SMILES IDX 29 36 31 37
REMARK H PARENT 2 12 6 14 26 32 31 38
ROOT
ATOM      1  C   UNL     1       0.131  -2.350  -0.203  1.00  0.00     0.133 A 
ATOM      2  C   UNL     1       0.952  -1.261   0.059  1.00  0.00     0.094 A 
ATOM      3  C   UNL     1       0.481   0.026   0.088  1.00  0.00     0.136 A 
ATOM      4  N   UNL     1      -0.847   0.176  -0.153  1.00  0.00    -0.210 NA
ATOM      5  C   UNL     1      -1.641  -0.864  -0.407  1.00  0.00     0.172 A 
ATOM      6  C   UNL     1      -3.006  -0.890  -0.681  1.00  0.00     0.104 A 
ATOM      7  C   UNL     1      -3.300  -2.214  -0.873  1.00  0.00     0.152 A 
ATOM      8  N   UNL     1      -2.158  -2.944  -0.715  1.00  0.00    -0.172 NA
ATOM      9  N   UNL     1      -1.167  -2.120  -0.435  1.00  0.00    -0.198 N 
ENDROOT
BRANCH   1  10
ATOM     10  N   UNL     1       0.656  -3.666  -0.226  1.00  0.00    -0.373 N 
ATOM     11  C   UNL     1      -0.175  -4.835  -0.486  1.00  0.00     0.141 C 
ATOM     12  H   UNL     1       0.000   0.000   0.000  1.00  0.00     0.161 HD
ENDBRANCH   1  10
BRANCH   3  13
ATOM     13  N   UNL     1       1.230   1.174   0.345  1.00  0.00    -0.336 N 
ATOM     14  H   UNL     1       0.000   0.000   0.000  1.00  0.00     0.168 HD
BRANCH  13  15
ATOM     15  C   UNL     1       2.571   1.314   0.716  1.00  0.00     0.106 A 
ATOM     16  C   UNL     1       2.792   1.966   1.947  1.00  0.00     0.033 A 
ATOM     17  C   UNL     1       3.678   0.909   0.025  1.00  0.00     0.278 A 
ATOM     18  C   UNL     1       4.070   2.182   2.421  1.00  0.00     0.021 A 
ATOM     19  N   UNL     1       4.908   1.115   0.483  1.00  0.00    -0.281 N 
ATOM     20  O   UNL     1       3.543   0.323  -1.081  1.00  0.00    -0.267 OA
ATOM     21  C   UNL     1       5.122   1.749   1.675  1.00  0.00     0.095 A 
BRANCH  19  22
ATOM     22  C   UNL     1       6.107   0.696  -0.171  1.00  0.00     0.070 A 
ATOM     23  C   UNL     1       6.175  -0.540  -0.766  1.00  0.00     0.137 A 
ATOM     24  C   UNL     1       7.251   1.490  -0.197  1.00  0.00     0.069 A 
ATOM     25  N   UNL     1       7.300  -0.988  -1.361  1.00  0.00    -0.259 NA
ATOM     26  C   UNL     1       8.400   1.035  -0.806  1.00  0.00     0.143 A 
ATOM     27  C   UNL     1       8.422  -0.230  -1.399  1.00  0.00     0.150 A 
ATOM     28  F   UNL     1       9.544   1.768  -0.854  1.00  0.00    -0.205 F 
ENDBRANCH  19  22
ENDBRANCH  13  15
ENDBRANCH   3  13
BRANCH   6  29
ATOM     29  C   UNL     1      -3.888   0.267  -0.723  1.00  0.00     0.257 C 
ATOM     30  O   UNL     1      -3.438   1.465  -0.715  1.00  0.00    -0.269 OA
ATOM     31  N   UNL     1      -5.319   0.019  -0.774  1.00  0.00    -0.347 N 
ATOM     32  H   UNL     1       0.000   0.000   0.000  1.00  0.00     0.164 HD
BRANCH  31  33
ATOM     33  C   UNL     1      -6.268   1.112  -0.821  1.00  0.00     0.111 C 
ATOM     34  C   UNL     1      -7.694   0.810  -0.996  1.00  0.00     0.030 C 
ATOM     35  C   UNL     1      -6.604   1.624   0.606  1.00  0.00     0.136 C 
ATOM     36  C   UNL     1      -7.999   1.893   0.056  1.00  0.00     0.036 C 
BRANCH  35  37
ATOM     37  O   UNL     1      -6.004   2.845   0.911  1.00  0.00    -0.391 OA
ATOM     38  H   UNL     1       0.000   0.000   0.000  1.00  0.00     0.211 HD
ENDBRANCH  35  37
ENDBRANCH  31  33
ENDBRANCH   6  29
TORSDOF 7
