REMARK SMILES CCO[C@H]1CC[C@@H]1NC(=O)c1cnn2c(NC)cc(NC3=CC=CN(c4ccccn4)[C@@H]3O)nc12
REMARK SMILES IDX 11 1 12 2 13 3 14 4 15 5 18 6 19 7 34 8 35 9 9 10 8 11 10 12
REMARK SMILES IDX 7 14 4 15 5 16 6 17 3 18 2 19 1 20 20 21 21 23 22 24 32 25
REMARK SMILES IDX 23 26 25 27 24 28 33 29 26 31 27 32 31 33 28 34 30 35 29 36
REMARK SMILES IDX 16 37 17 38
REMARK H PARENT 8 13 20 22 33 30 16 39
ROOT
ATOM      1  C   UNL     1       2.446  -2.199   1.282  1.00  0.00     0.104 A 
ATOM      2  C   UNL     1       2.311  -3.191   2.223  1.00  0.00     0.152 A 
ATOM      3  N   UNL     1       0.989  -3.512   2.327  1.00  0.00    -0.172 NA
ATOM      4  N   UNL     1       0.319  -2.739   1.473  1.00  0.00    -0.198 N 
ATOM      5  C   UNL     1      -1.009  -2.726   1.253  1.00  0.00     0.133 A 
ATOM      6  C   UNL     1      -1.461  -1.821   0.304  1.00  0.00     0.094 A 
ATOM      7  C   UNL     1      -0.617  -0.975  -0.385  1.00  0.00     0.136 A 
ATOM      8  N   UNL     1       0.715  -1.051  -0.103  1.00  0.00    -0.210 NA
ATOM      9  C   UNL     1       1.173  -1.928   0.821  1.00  0.00     0.172 A 
ENDROOT
BRANCH   1  10
ATOM     10  C   UNL     1       3.715  -1.594   0.892  1.00  0.00     0.257 C 
ATOM     11  N   UNL     1       3.789  -0.525  -0.044  1.00  0.00    -0.347 N 
ATOM     12  O   UNL     1       4.805  -1.998   1.373  1.00  0.00    -0.269 OA
ATOM     13  H   UNL     1       0.000   0.000   0.000  1.00  0.00     0.164 HD
BRANCH  11  14
ATOM     14  C   UNL     1       5.036   0.048  -0.412  1.00  0.00     0.111 C 
ATOM     15  C   UNL     1       5.210   1.532  -0.286  1.00  0.00     0.140 C 
ATOM     16  C   UNL     1       4.997   1.622  -1.804  1.00  0.00     0.036 C 
ATOM     17  C   UNL     1       5.379   0.161  -1.854  1.00  0.00     0.030 C 
BRANCH  15  18
ATOM     18  O   UNL     1       6.547   1.927  -0.046  1.00  0.00    -0.376 OA
BRANCH  18  19
ATOM     19  C   UNL     1       6.623   2.948   0.882  1.00  0.00     0.157 C 
ATOM     20  C   UNL     1       8.078   3.311   1.088  1.00  0.00     0.035 C 
ENDBRANCH  18  19
ENDBRANCH  15  18
ENDBRANCH  11  14
ENDBRANCH   1  10
BRANCH   7  21
ATOM     21  N   UNL     1      -1.122  -0.064  -1.351  1.00  0.00    -0.340 N 
ATOM     22  H   UNL     1       0.000   0.000   0.000  1.00  0.00     0.168 HD
BRANCH  21  23
ATOM     23  C   UNL     1      -2.525  -0.072  -1.587  1.00  0.00     0.067 C 
ATOM     24  C   UNL     1      -2.939  -0.812  -2.616  1.00  0.00     0.028 C 
ATOM     25  C   UNL     1      -3.427   0.711  -0.726  1.00  0.00     0.265 C 
ATOM     26  C   UNL     1      -4.357  -0.885  -2.939  1.00  0.00     0.020 C 
ATOM     27  N   UNL     1      -4.808   0.575  -1.110  1.00  0.00    -0.301 N 
ATOM     28  C   UNL     1      -5.240  -0.221  -2.216  1.00  0.00     0.091 C 
BRANCH  25  29
ATOM     29  O   UNL     1      -3.091   2.083  -0.809  1.00  0.00    -0.368 OA
ATOM     30  H   UNL     1       0.000   0.000   0.000  1.00  0.00     0.213 HD
ENDBRANCH  25  29
BRANCH  27  31
ATOM     31  C   UNL     1      -5.808   1.261  -0.354  1.00  0.00     0.134 A 
ATOM     32  C   UNL     1      -5.508   2.048   0.739  1.00  0.00     0.047 A 
ATOM     33  N   UNL     1      -7.118   1.167  -0.681  1.00  0.00    -0.239 NA
ATOM     34  C   UNL     1      -6.497   2.695   1.446  1.00  0.00     0.005 A 
ATOM     35  C   UNL     1      -8.105   1.786  -0.011  1.00  0.00     0.113 A 
ATOM     36  C   UNL     1      -7.844   2.583   1.090  1.00  0.00     0.020 A 
ENDBRANCH  27  31
ENDBRANCH  21  23
ENDBRANCH   7  21
BRANCH   5  37
ATOM     37  N   UNL     1      -1.913  -3.573   1.933  1.00  0.00    -0.373 N 
ATOM     38  C   UNL     1      -2.289  -4.896   1.446  1.00  0.00     0.141 C 
ATOM     39  H   UNL     1       0.000   0.000   0.000  1.00  0.00     0.161 HD
ENDBRANCH   5  37
TORSDOF 9
