REMARK SMILES NC(=O)c1cnn2c(N)cc(Nc3cccn(-c4ccccn4)c3=O)nc12
REMARK SMILES IDX 4 1 5 2 6 3 7 4 8 5 10 6 11 7 26 8 27 9 2 10 1 11 3 12 12 15
REMARK SMILES IDX 13 17 14 18 24 19 15 20 17 21 25 22 16 23 18 24 19 25 23 26
REMARK SMILES IDX 20 27 22 28 21 29 9 30
REMARK H PARENT 1 13 1 14 12 16 9 31 9 32
ROOT
ATOM      1  C   UNL     1      -4.976   0.584  -0.296  1.00  0.00     0.104 A 
ATOM      2  C   UNL     1      -5.535  -0.474  -1.016  1.00  0.00     0.152 A 
ATOM      3  N   UNL     1      -4.557  -1.377  -1.227  1.00  0.00    -0.172 NA
ATOM      4  N   UNL     1      -3.440  -0.941  -0.685  1.00  0.00    -0.199 N 
ATOM      5  C   UNL     1      -2.188  -1.474  -0.625  1.00  0.00     0.131 A 
ATOM      6  C   UNL     1      -1.184  -0.763   0.032  1.00  0.00     0.093 A 
ATOM      7  C   UNL     1      -1.417   0.460   0.621  1.00  0.00     0.136 A 
ATOM      8  N   UNL     1      -2.675   0.941   0.530  1.00  0.00    -0.210 NA
ATOM      9  C   UNL     1      -3.650   0.257  -0.103  1.00  0.00     0.172 A 
ENDROOT
BRANCH   1  10
ATOM     10  C   UNL     1      -5.678   1.791   0.154  1.00  0.00     0.254 C 
ATOM     11  N   UNL     1      -7.057   1.941  -0.156  1.00  0.00    -0.365 N 
ATOM     12  O   UNL     1      -5.014   2.645   0.800  1.00  0.00    -0.269 OA
ATOM     13  H   UNL     1       0.000   0.000   0.000  1.00  0.00     0.159 HD
ATOM     14  H   UNL     1       0.000   0.000   0.000  1.00  0.00     0.159 HD
ENDBRANCH   1  10
BRANCH   7  15
ATOM     15  N   UNL     1      -0.420   1.214   1.293  1.00  0.00    -0.336 N 
ATOM     16  H   UNL     1       0.000   0.000   0.000  1.00  0.00     0.168 HD
BRANCH  15  17
ATOM     17  C   UNL     1       0.934   0.834   1.405  1.00  0.00     0.106 A 
ATOM     18  C   UNL     1       1.418   0.639   2.701  1.00  0.00     0.033 A 
ATOM     19  C   UNL     1       1.782   0.658   0.331  1.00  0.00     0.279 A 
ATOM     20  C   UNL     1       2.733   0.272   2.931  1.00  0.00     0.021 A 
ATOM     21  N   UNL     1       3.068   0.298   0.556  1.00  0.00    -0.266 N 
ATOM     22  O   UNL     1       1.359   0.831  -0.840  1.00  0.00    -0.267 OA
ATOM     23  C   UNL     1       3.533   0.110   1.818  1.00  0.00     0.097 A 
BRANCH  21  24
ATOM     24  C   UNL     1       3.997   0.100  -0.502  1.00  0.00     0.139 A 
ATOM     25  C   UNL     1       4.846  -0.997  -0.373  1.00  0.00     0.048 A 
ATOM     26  N   UNL     1       4.085   0.896  -1.576  1.00  0.00    -0.239 NA
ATOM     27  C   UNL     1       5.798  -1.302  -1.334  1.00  0.00     0.005 A 
ATOM     28  C   UNL     1       4.996   0.629  -2.525  1.00  0.00     0.113 A 
ATOM     29  C   UNL     1       5.853  -0.450  -2.429  1.00  0.00     0.020 A 
ENDBRANCH  21  24
ENDBRANCH  15  17
ENDBRANCH   7  15
BRANCH   5  30
ATOM     30  N   UNL     1      -1.896  -2.717  -1.208  1.00  0.00    -0.383 N 
ATOM     31  H   UNL     1       0.000   0.000   0.000  1.00  0.00     0.158 HD
ATOM     32  H   UNL     1       0.000   0.000   0.000  1.00  0.00     0.158 HD
ENDBRANCH   5  30
TORSDOF 5
