REMARK SMILES CNc1cc(Nc2cccn(-c3ccc(C)nc3)c2=O)nc2c(C(=O)NC3CC3)cnn12
REMARK SMILES IDX 6 1 5 3 3 4 4 5 32 6 31 7 22 8 21 9 30 10 23 11 2 12 1 13
REMARK SMILES IDX 24 15 25 16 26 17 27 19 28 20 29 21 7 22 8 23 19 24 9 25
REMARK SMILES IDX 11 26 20 27 10 28 12 29 13 30 18 31 14 32 17 33 15 34 16 35
REMARK H PARENT 6 2 2 14 26 18
ROOT
ATOM      1  N   UNL     1       0.640   1.003  -1.209  1.00  0.00    -0.336 N 
ATOM      2  H   UNL     1       0.000   0.000   0.000  1.00  0.00     0.168 HD
ENDROOT
BRANCH   1   3
ATOM      3  C   UNL     1      -0.586   1.560  -0.756  1.00  0.00     0.136 A 
ATOM      4  C   UNL     1      -1.942   3.348   0.179  1.00  0.00     0.133 A 
ATOM      5  C   UNL     1      -0.717   2.827  -0.247  1.00  0.00     0.094 A 
ATOM      6  N   UNL     1      -2.998   2.521   0.057  1.00  0.00    -0.198 N 
ATOM      7  N   UNL     1      -4.270   2.679   0.348  1.00  0.00    -0.172 NA
ATOM      8  C   UNL     1      -2.858   1.265  -0.450  1.00  0.00     0.172 A 
ATOM      9  N   UNL     1      -1.676   0.778  -0.854  1.00  0.00    -0.210 NA
ATOM     10  C   UNL     1      -5.006   1.599   0.067  1.00  0.00     0.152 A 
ATOM     11  C   UNL     1      -4.119   0.673  -0.449  1.00  0.00     0.104 A 
BRANCH   4  12
ATOM     12  N   UNL     1      -2.017   4.662   0.700  1.00  0.00    -0.373 N 
ATOM     13  C   UNL     1      -3.193   5.302   1.189  1.00  0.00     0.141 C 
ATOM     14  H   UNL     1       0.000   0.000   0.000  1.00  0.00     0.161 HD
ENDBRANCH   4  12
BRANCH  11  15
ATOM     15  C   UNL     1      -4.497  -0.661  -0.897  1.00  0.00     0.256 C 
ATOM     16  O   UNL     1      -3.928  -1.134  -1.928  1.00  0.00    -0.269 OA
ATOM     17  N   UNL     1      -5.469  -1.464  -0.244  1.00  0.00    -0.349 N 
ATOM     18  H   UNL     1       0.000   0.000   0.000  1.00  0.00     0.164 HD
BRANCH  17  19
ATOM     19  C   UNL     1      -5.796  -2.791  -0.751  1.00  0.00     0.082 C 
ATOM     20  C   UNL     1      -5.689  -3.886   0.311  1.00  0.00     0.027 C 
ATOM     21  C   UNL     1      -7.002  -3.511  -0.334  1.00  0.00     0.027 C 
ENDBRANCH  17  19
ENDBRANCH  11  15
ENDBRANCH   1   3
BRANCH   1  22
ATOM     22  C   UNL     1       1.641   0.654  -0.255  1.00  0.00     0.106 A 
ATOM     23  C   UNL     1       1.440   0.907   1.096  1.00  0.00     0.033 A 
ATOM     24  C   UNL     1       2.819   0.053  -0.637  1.00  0.00     0.278 A 
ATOM     25  C   UNL     1       2.384   0.573   2.043  1.00  0.00     0.021 A 
ATOM     26  N   UNL     1       3.754  -0.281   0.285  1.00  0.00    -0.281 N 
ATOM     27  O   UNL     1       3.059  -0.203  -1.852  1.00  0.00    -0.267 OA
ATOM     28  C   UNL     1       3.545  -0.029   1.595  1.00  0.00     0.095 A 
BRANCH  26  29
ATOM     29  C   UNL     1       4.975  -0.913  -0.059  1.00  0.00     0.067 A 
ATOM     30  C   UNL     1       6.052  -0.259  -0.617  1.00  0.00     0.030 A 
ATOM     31  C   UNL     1       5.042  -2.286   0.198  1.00  0.00     0.138 A 
ATOM     32  C   UNL     1       7.167  -1.035  -0.893  1.00  0.00     0.025 A 
ATOM     33  N   UNL     1       6.142  -2.987  -0.089  1.00  0.00    -0.259 NA
ATOM     34  C   UNL     1       7.209  -2.373  -0.634  1.00  0.00     0.037 A 
ATOM     35  C   UNL     1       8.391  -3.240  -0.924  1.00  0.00     0.066 C 
ENDBRANCH  26  29
ENDBRANCH   1  22
TORSDOF 6
