REMARK SMILES CNc1cc(Nc2cccn(-c3cccc(C(C)(C)O)n3)c2=O)nc2c(C(=O)NC3CCC3)cnn12
REMARK SMILES IDX 7 1 8 2 9 3 10 4 11 5 22 6 23 7 6 8 5 10 3 11 4 12 36 13
REMARK SMILES IDX 35 14 25 15 24 16 34 17 26 18 2 19 1 20 27 22 28 23 29 24
REMARK SMILES IDX 30 26 31 27 33 28 32 29 12 30 13 31 21 32 14 33 16 34 15 35
REMARK SMILES IDX 17 36 18 37 19 38 20 39
REMARK H PARENT 6 9 2 21 29 25 20 40
ROOT
ATOM      1  C   UNL     1      -1.116   0.222  -0.300  1.00  0.00     0.106 A 
ATOM      2  C   UNL     1      -1.190   0.234   1.075  1.00  0.00     0.033 A 
ATOM      3  C   UNL     1      -2.414   0.121   1.696  1.00  0.00     0.021 A 
ATOM      4  C   UNL     1      -3.533  -0.000   0.919  1.00  0.00     0.097 A 
ATOM      5  N   UNL     1      -3.504  -0.017  -0.445  1.00  0.00    -0.266 N 
ATOM      6  C   UNL     1      -2.308   0.093  -1.014  1.00  0.00     0.279 A 
ATOM      7  O   UNL     1      -2.199   0.084  -2.258  1.00  0.00    -0.267 OA
ENDROOT
BRANCH   1   8
ATOM      8  N   UNL     1       0.132   0.410  -0.997  1.00  0.00    -0.336 N 
ATOM      9  H   UNL     1       0.000   0.000   0.000  1.00  0.00     0.168 HD
BRANCH   8  10
ATOM     10  C   UNL     1       1.315   0.734  -0.269  1.00  0.00     0.136 A 
ATOM     11  C   UNL     1       2.226   2.249   1.366  1.00  0.00     0.133 A 
ATOM     12  C   UNL     1       1.166   1.825   0.603  1.00  0.00     0.094 A 
ATOM     13  N   UNL     1       3.382   1.579   1.233  1.00  0.00    -0.198 N 
ATOM     14  N   UNL     1       4.519   1.813   1.859  1.00  0.00    -0.172 NA
ATOM     15  C   UNL     1       3.516   0.520   0.382  1.00  0.00     0.172 A 
ATOM     16  N   UNL     1       2.482   0.091  -0.374  1.00  0.00    -0.210 NA
ATOM     17  C   UNL     1       5.465   0.947   1.477  1.00  0.00     0.152 A 
ATOM     18  C   UNL     1       4.841   0.120   0.538  1.00  0.00     0.104 A 
BRANCH  11  19
ATOM     19  N   UNL     1       2.054   3.341   2.249  1.00  0.00    -0.373 N 
ATOM     20  C   UNL     1       2.231   4.731   1.888  1.00  0.00     0.141 C 
ATOM     21  H   UNL     1       0.000   0.000   0.000  1.00  0.00     0.161 HD
ENDBRANCH  11  19
BRANCH  18  22
ATOM     22  C   UNL     1       5.532  -0.983  -0.150  1.00  0.00     0.256 C 
ATOM     23  O   UNL     1       4.903  -1.820  -0.844  1.00  0.00    -0.269 OA
ATOM     24  N   UNL     1       6.926  -1.113  -0.034  1.00  0.00    -0.349 N 
ATOM     25  H   UNL     1       0.000   0.000   0.000  1.00  0.00     0.164 HD
BRANCH  24  26
ATOM     26  C   UNL     1       7.766  -2.103  -0.615  1.00  0.00     0.082 C 
ATOM     27  C   UNL     1       8.771  -2.749   0.312  1.00  0.00     0.025 C 
ATOM     28  C   UNL     1       8.931  -1.564  -1.436  1.00  0.00     0.025 C 
ATOM     29  C   UNL     1       9.874  -1.895  -0.296  1.00  0.00     0.004 C 
ENDBRANCH  24  26
ENDBRANCH  18  22
ENDBRANCH   8  10
ENDBRANCH   1   8
BRANCH   5  30
ATOM     30  C   UNL     1      -4.743  -0.116  -1.097  1.00  0.00     0.139 A 
ATOM     31  C   UNL     1      -4.989   0.231  -2.405  1.00  0.00     0.048 A 
ATOM     32  N   UNL     1      -5.827  -0.573  -0.409  1.00  0.00    -0.232 NA
ATOM     33  C   UNL     1      -6.267   0.119  -2.976  1.00  0.00     0.006 A 
ATOM     34  C   UNL     1      -7.055  -0.692  -0.917  1.00  0.00     0.074 A 
ATOM     35  C   UNL     1      -7.310  -0.348  -2.216  1.00  0.00     0.027 A 
BRANCH  34  36
ATOM     36  C   UNL     1      -8.198  -1.181  -0.084  1.00  0.00     0.101 C 
ATOM     37  C   UNL     1      -7.672  -1.529   1.309  1.00  0.00     0.049 C 
ATOM     38  C   UNL     1      -9.270  -0.112   0.051  1.00  0.00     0.049 C 
BRANCH  36  39
ATOM     39  O   UNL     1      -8.751  -2.282  -0.728  1.00  0.00    -0.384 OA
ATOM     40  H   UNL     1       0.000   0.000   0.000  1.00  0.00     0.211 HD
ENDBRANCH  36  39
ENDBRANCH  34  36
ENDBRANCH   5  30
TORSDOF 8
