lig_prepped.sdf
  ChemDraw02042614423D

  0  0  0     0  0              0 V3000
M  V30 BEGIN CTAB
M  V30 COUNTS 64 68 0 0 0
M  V30 BEGIN ATOM
M  V30 1 C 4.316816 9.382661 5.392432 0
M  V30 2 N 3.898766 6.085468 6.249651 0
M  V30 3 C 4.304715 3.495544 4.155123 0
M  V30 4 C 1.790479 2.489565 2.345308 0
M  V30 5 C 2.145181 -0.099648 0.275459 0
M  V30 6 N -0.663022 -0.869080 -1.450842 0
M  V30 7 C -3.623069 -1.315601 0.202146 0
M  V30 8 C -3.798405 -1.286894 3.464462 0
M  V30 9 C -6.702222 -1.554759 4.938318 0
M  V30 10 C -9.356918 -1.842082 3.093150 0
M  V30 11 N -9.289535 -1.881229 -0.141643 0
M  V30 12 C -12.229892 -2.117776 -1.688812 0
M  V30 13 C -12.812838 -1.293300 -4.792402 0
M  V30 14 C -15.845488 -1.558557 -6.147153 0
M  V30 15 C -18.319155 -2.668218 -4.343271 0
M  V30 16 C -17.713431 -3.483441 -1.262219 0
M  V30 17 C -20.426492 -4.644825 0.715337 0
M  V30 18 C -19.178745 -5.470013 4.018699 0
M  V30 19 C -22.968964 -2.108048 1.035400 0
M  V30 20 O -21.738774 -7.255154 -0.814037 0
M  V30 21 N -14.800835 -3.200866 -0.057179 0
M  V30 22 C -6.451202 -1.621904 -1.492835 0
M  V30 23 O -6.193538 -1.643020 -4.443868 0
M  V30 24 N 4.913048 -1.625700 0.025624 0
M  V30 25 C 7.365598 -0.606909 1.819542 0
M  V30 26 C 10.509286 -1.556657 2.191328 0
M  V30 27 C 12.148274 -4.174578 0.558508 0
M  V30 28 O 10.656388 -6.160440 -1.089496 0
M  V30 29 N 15.458043 -4.481591 0.832069 0
M  V30 30 C 17.450311 -6.832121 -0.544985 0
M  V30 31 C 19.834766 -8.364579 1.654173 0
M  V30 32 C 22.451738 -6.338857 0.211874 0
M  V30 33 C 20.213197 -5.553056 -2.493359 0
M  V30 34 C 11.989312 0.405479 4.417770 0
M  V30 35 N 9.747209 2.459906 5.323151 0
M  V30 36 N 7.048858 1.903534 3.838858 0
M  V30 37 H 4.275297 10.910136 7.504515 0
M  V30 38 H 2.390032 9.919106 3.640273 0
M  V30 39 H 6.598303 9.733804 4.078490 0
M  V30 40 H 3.263385 5.518418 8.588789 0
M  V30 41 H -0.435728 3.747989 2.551013 0
M  V30 42 H -0.670139 -1.117965 -3.875869 0
M  V30 43 H -1.754889 -1.106578 4.991464 0
M  V30 44 H -6.876370 -1.541235 7.454691 0
M  V30 45 H -11.620372 -2.040430 4.369133 0
M  V30 46 H -11.027698 -0.405001 -6.310625 0
M  V30 47 H -16.276589 -0.914634 -8.588789 0
M  V30 48 H -20.635755 -2.843078 -5.445815 0
M  V30 49 H -18.798893 -8.069191 4.135433 0
M  V30 50 H -16.907935 -4.239588 4.482779 0
M  V30 51 H -20.950836 -4.716005 5.843461 0
M  V30 52 H -24.386352 -2.756241 3.214152 0
M  V30 53 H -24.548162 -2.268437 -1.005504 0
M  V30 54 H -21.979828 0.274510 1.524155 0
M  V30 55 H -21.665224 -9.049547 0.714626 0
M  V30 56 H 16.643391 -2.738210 2.251117 0
M  V30 57 H 16.204699 -8.677051 -1.949323 0
M  V30 58 H 19.402242 -7.756719 4.204001 0
M  V30 59 H 20.316640 -10.910136 1.206227 0
M  V30 60 H 23.111320 -4.303647 1.745043 0
M  V30 61 H 24.548162 -7.675815 -0.660530 0
M  V30 62 H 20.075111 -2.952455 -3.036208 0
M  V30 63 H 20.731607 -6.832595 -4.722649 0
M  V30 64 H 14.398206 0.335248 5.270481 0
M  V30 END ATOM
M  V30 BEGIN BOND
M  V30 1 1 1 2
M  V30 2 1 2 3
M  V30 3 2 3 4
M  V30 4 1 4 5
M  V30 5 1 5 6
M  V30 6 1 6 7
M  V30 7 2 7 8
M  V30 8 1 8 9
M  V30 9 2 9 10
M  V30 10 1 10 11
M  V30 11 1 11 12
M  V30 12 2 12 13
M  V30 13 1 13 14
M  V30 14 2 14 15
M  V30 15 1 15 16
M  V30 16 1 16 17
M  V30 17 1 17 18
M  V30 18 1 17 19
M  V30 19 1 17 20
M  V30 20 2 16 21
M  V30 21 1 11 22
M  V30 22 2 22 23
M  V30 23 2 5 24
M  V30 24 1 24 25
M  V30 25 2 25 26
M  V30 26 1 26 27
M  V30 27 2 27 28
M  V30 28 1 27 29
M  V30 29 1 29 30
M  V30 30 1 30 31
M  V30 31 1 31 32
M  V30 32 1 32 33
M  V30 33 1 26 34
M  V30 34 2 34 35
M  V30 35 1 35 36
M  V30 36 1 36 3
M  V30 37 1 22 7
M  V30 38 1 36 25
M  V30 39 1 21 12
M  V30 40 1 33 30
M  V30 41 1 1 37
M  V30 42 1 1 38
M  V30 43 1 1 39
M  V30 44 1 2 40
M  V30 45 1 4 41
M  V30 46 1 6 42
M  V30 47 1 8 43
M  V30 48 1 9 44
M  V30 49 1 10 45
M  V30 50 1 13 46
M  V30 51 1 14 47
M  V30 52 1 15 48
M  V30 53 1 18 49
M  V30 54 1 18 50
M  V30 55 1 18 51
M  V30 56 1 19 52
M  V30 57 1 19 53
M  V30 58 1 19 54
M  V30 59 1 20 55
M  V30 60 1 29 56
M  V30 61 1 30 57
M  V30 62 1 31 58
M  V30 63 1 31 59
M  V30 64 1 32 60
M  V30 65 1 32 61
M  V30 66 1 33 62
M  V30 67 1 33 63
M  V30 68 1 34 64
M  V30 END BOND
M  V30 END CTAB
M  END
>  <smiles>
CNc1cc(Nc2cccn(-c3cccc(C(C)(C)O)n3)c2=O)nc2c(C(=O)NC3CCC3)cnn12
> <origin_smiles>
CNc1cc(Nc2cccn(-c3cccc(C(C)(C)O)n3)c2=O)nc2c(C(=O)NC3CCC3)cnn12
> <inchi_key>
BBDKLLAGPXCLIH-UHFFFAOYSA-N

$$$$
lig_prepped.sdf
  ChemDraw02042614423D

  0  0  0     0  0              0 V3000
M  V30 BEGIN CTAB
M  V30 COUNTS 55 59 0 0 0
M  V30 BEGIN ATOM
M  V30 1 C -1.244372 -8.478552 -2.730988 0
M  V30 2 N 0.703421 -5.740064 -2.121394 0
M  V30 3 C -0.526542 -2.657658 -2.068214 0
M  V30 4 C 1.396184 -0.106595 -1.453700 0
M  V30 5 C 0.294137 2.910448 -1.384821 0
M  V30 6 N 2.049589 5.599501 -0.782490 0
M  V30 7 C 5.190096 5.926789 0.086215 0
M  V30 8 C 5.708555 7.453115 2.969720 0
M  V30 9 C 8.701702 7.959391 4.081139 0
M  V30 10 C 11.165615 6.946605 2.332482 0
M  V30 11 N 10.665662 5.461043 -0.460827 0
M  V30 12 C 13.473496 4.478009 -1.992775 0
M  V30 13 C 13.632571 1.582555 -3.387205 0
M  V30 14 N 16.268910 0.533923 -4.781397 0
M  V30 15 C 18.896817 2.309758 -4.870424 0
M  V30 16 C 18.847148 5.273385 -3.480917 0
M  V30 17 F 21.527065 6.991352 -3.592198 0
M  V30 18 C 16.153879 6.340055 -2.054157 0
M  V30 19 C 7.783096 4.978193 -1.533589 0
M  V30 20 O 7.468225 3.605553 -4.124948 0
M  V30 21 N -2.817087 3.259992 -1.950138 0
M  V30 22 C -4.677027 0.823962 -2.544971 0
M  V30 23 C -7.876104 0.762344 -3.187364 0
M  V30 24 C -9.941273 3.474123 -3.286465 0
M  V30 25 O -8.888190 6.281252 -3.265848 0
M  V30 26 N -13.294740 2.893579 -3.404071 0
M  V30 27 C -15.517813 5.452843 -3.513948 0
M  V30 28 C -18.859800 4.746023 -3.923937 0
M  V30 29 C -19.573649 7.282561 -1.461666 0
M  V30 30 C -16.304756 6.652819 -0.172195 0
M  V30 31 O -14.899082 9.513128 0.542590 0
M  V30 32 C -8.563947 -2.339272 -3.636009 0
M  V30 33 N -5.888718 -4.049274 -3.266082 0
M  V30 34 N -3.566545 -2.119520 -2.610101 0
M  V30 35 H -2.583745 -8.295813 -4.944455 0
M  V30 36 H -2.998183 -8.784754 -0.877843 0
M  V30 37 H 0.242361 -10.594325 -2.961050 0
M  V30 38 H 3.126334 -6.111631 -1.715624 0
M  V30 39 H 3.837839 -0.507448 -1.004119 0
M  V30 40 H 0.821732 7.803597 -1.035043 0
M  V30 41 H 3.709922 8.236076 4.342827 0
M  V30 42 H 9.010482 9.143203 6.287106 0
M  V30 43 H 13.497860 7.366666 3.212667 0
M  V30 44 H 11.610978 0.047795 -3.393529 0
M  V30 45 H 21.001344 1.472211 -5.979967 0
M  V30 46 H 16.134668 8.611156 -1.010444 0
M  V30 47 H -14.171413 0.573750 -3.442493 0
M  V30 48 H -14.622867 7.447961 -4.815134 0
M  V30 49 H -19.824328 5.243865 -6.287106 0
M  V30 50 H -19.772786 2.473988 -2.963862 0
M  V30 51 H -19.627767 9.574041 -2.692567 0
M  V30 52 H -21.527065 6.743485 0.132601 0
M  V30 53 H -16.310143 4.850746 1.610433 0
M  V30 54 H -13.960327 10.594325 -1.284317 0
M  V30 55 H -10.908141 -3.230470 -4.207414 0
M  V30 END ATOM
M  V30 BEGIN BOND
M  V30 1 1 1 2
M  V30 2 1 2 3
M  V30 3 2 3 4
M  V30 4 1 4 5
M  V30 5 1 5 6
M  V30 6 1 6 7
M  V30 7 2 7 8
M  V30 8 1 8 9
M  V30 9 2 9 10
M  V30 10 1 10 11
M  V30 11 1 11 12
M  V30 12 2 12 13
M  V30 13 1 13 14
M  V30 14 2 14 15
M  V30 15 1 15 16
M  V30 16 1 16 17
M  V30 17 2 16 18
M  V30 18 1 11 19
M  V30 19 2 19 20
M  V30 20 2 5 21
M  V30 21 1 21 22
M  V30 22 2 22 23
M  V30 23 1 23 24
M  V30 24 2 24 25
M  V30 25 1 24 26
M  V30 26 1 26 27
M  V30 27 1 27 28
M  V30 28 1 28 29
M  V30 29 1 29 30
M  V30 30 1 30 31
M  V30 31 1 23 32
M  V30 32 2 32 33
M  V30 33 1 33 34
M  V30 34 1 34 3
M  V30 35 1 19 7
M  V30 36 1 34 22
M  V30 37 1 18 12
M  V30 38 1 30 27
M  V30 39 1 1 35
M  V30 40 1 1 36
M  V30 41 1 1 37
M  V30 42 1 2 38
M  V30 43 1 4 39
M  V30 44 1 6 40
M  V30 45 1 8 41
M  V30 46 1 9 42
M  V30 47 1 10 43
M  V30 48 1 13 44
M  V30 49 1 15 45
M  V30 50 1 18 46
M  V30 51 1 26 47
M  V30 52 1 27 48 CFG=3
M  V30 53 1 28 49
M  V30 54 1 28 50
M  V30 55 1 29 51
M  V30 56 1 29 52
M  V30 57 1 30 53 CFG=1
M  V30 58 1 31 54
M  V30 59 1 32 55
M  V30 END BOND
M  V30 BEGIN COLLECTION
M  V30 MDLV30/STERAC1 ATOMS=(2 27 30)
M  V30 END COLLECTION
M  V30 END CTAB
M  END
>  <smiles>
CNc1cc(Nc2cccn(-c3cncc(F)c3)c2=O)nc2c(C(=O)N[C@H]3CC[C@@H]3O)cnn12
> <origin_smiles>
CNc1cc(Nc2cccn(-c3cncc(F)c3)c2=O)nc2c(C(=O)N[C@H]3CC[C@@H]3O)cnn12
> <inchi_key>
XLGFWUYRKUWXSI-RDJZCZTQSA-N

$$$$
lig_prepped.sdf
  ChemDraw02042614423D

  0  0  0     0  0              0 V3000
M  V30 BEGIN CTAB
M  V30 COUNTS 54 58 0 0 0
M  V30 BEGIN ATOM
M  V30 1 C -9.048312 10.688219 1.751750 0
M  V30 2 N -6.274551 9.177829 0.599161 0
M  V30 3 C -6.098716 6.081391 -0.629328 0
M  V30 4 C -3.210639 4.854319 -1.632954 0
M  V30 5 C -2.902575 1.866302 -2.832920 0
M  V30 6 N -0.013554 0.555082 -3.900659 0
M  V30 7 C 2.347490 -0.267994 -1.651337 0
M  V30 8 C 1.873018 0.327628 1.532782 0
M  V30 9 C 4.098061 -0.460095 3.765603 0
M  V30 10 C 6.835523 -1.877615 2.707529 0
M  V30 11 N 7.327909 -2.472061 -0.379717 0
M  V30 12 C 10.205380 -3.960530 -1.191009 0
M  V30 13 C 12.744379 -2.419497 -2.503878 0
M  V30 14 C 15.372239 -4.249736 -3.156070 0
M  V30 15 C 15.471234 -7.401566 -2.545362 0
M  V30 16 C 18.257253 -9.447474 -3.228904 0
M  V30 17 N 12.956514 -8.849258 -1.260778 0
M  V30 18 C 10.362594 -7.197683 -0.584543 0
M  V30 19 C 5.122665 -1.683867 -2.553142 0
M  V30 20 O 5.688355 -2.288447 -5.416939 0
M  V30 21 N -5.471509 0.024278 -3.064147 0
M  V30 22 C -8.257526 1.171447 -2.112375 0
M  V30 23 C -11.229984 -0.222504 -2.109781 0
M  V30 24 C -12.121888 -3.367263 -3.164558 0
M  V30 25 O -10.779319 -4.482378 -5.595367 0
M  V30 26 N -14.411042 -5.259022 -1.626354 0
M  V30 27 C -15.181794 -8.387987 -2.822079 0
M  V30 28 C -14.929117 -10.968706 -0.317964 0
M  V30 29 C -18.025086 -10.085053 -1.836837 0
M  V30 30 C -13.321620 1.959170 -0.894024 0
M  V30 31 N -11.584720 4.505948 -0.230753 0
M  V30 32 N -8.586804 4.133536 -0.916887 0
M  V30 33 H -8.798466 13.318906 1.540559 0
M  V30 34 H -11.252847 9.962017 0.663036 0
M  V30 35 H -9.156029 10.282337 4.352270 0
M  V30 36 H -4.165476 10.477028 0.651722 0
M  V30 37 H -1.110046 6.353865 -1.444156 0
M  V30 38 H 0.436405 0.176070 -6.255811 0
M  V30 39 H -0.306298 1.453349 2.350439 0
M  V30 40 H 3.751106 0.006601 6.255811 0
M  V30 41 H 8.564409 -2.491624 4.409074 0
M  V30 42 H 12.602957 0.063875 -2.959023 0
M  V30 43 H 17.416496 -3.163143 -4.179025 0
M  V30 44 H 19.764107 -9.846284 -1.173568 0
M  V30 45 H 17.424512 -11.789191 -4.097470 0
M  V30 46 H 19.650498 -8.367009 -5.110762 0
M  V30 47 H 8.376081 -8.402600 0.440531 0
M  V30 48 H -15.552554 -4.352268 0.407767 0
M  V30 49 H -13.814948 -9.013543 -4.988432 0
M  V30 50 H -14.011288 -13.318906 -0.999852 0
M  V30 51 H -14.502966 -10.235903 2.168946 0
M  V30 52 H -19.061711 -11.744643 -3.570202 0
M  V30 53 H -19.764107 -8.797403 -0.400695 0
M  V30 54 H -15.843885 1.718987 -0.526561 0
M  V30 END ATOM
M  V30 BEGIN BOND
M  V30 1 1 1 2
M  V30 2 1 2 3
M  V30 3 2 3 4
M  V30 4 1 4 5
M  V30 5 1 5 6
M  V30 6 1 6 7
M  V30 7 2 7 8
M  V30 8 1 8 9
M  V30 9 2 9 10
M  V30 10 1 10 11
M  V30 11 1 11 12
M  V30 12 2 12 13
M  V30 13 1 13 14
M  V30 14 2 14 15
M  V30 15 1 15 16
M  V30 16 1 15 17
M  V30 17 2 17 18
M  V30 18 1 11 19
M  V30 19 2 19 20
M  V30 20 2 5 21
M  V30 21 1 21 22
M  V30 22 2 22 23
M  V30 23 1 23 24
M  V30 24 2 24 25
M  V30 25 1 24 26
M  V30 26 1 26 27
M  V30 27 1 27 28
M  V30 28 1 28 29
M  V30 29 1 23 30
M  V30 30 2 30 31
M  V30 31 1 31 32
M  V30 32 1 32 3
M  V30 33 1 19 7
M  V30 34 1 32 22
M  V30 35 1 18 12
M  V30 36 1 29 27
M  V30 37 1 1 33
M  V30 38 1 1 34
M  V30 39 1 1 35
M  V30 40 1 2 36
M  V30 41 1 4 37
M  V30 42 1 6 38
M  V30 43 1 8 39
M  V30 44 1 9 40
M  V30 45 1 10 41
M  V30 46 1 13 42
M  V30 47 1 14 43
M  V30 48 1 16 44
M  V30 49 1 16 45
M  V30 50 1 16 46
M  V30 51 1 18 47
M  V30 52 1 26 48
M  V30 53 1 27 49
M  V30 54 1 28 50
M  V30 55 1 28 51
M  V30 56 1 29 52
M  V30 57 1 29 53
M  V30 58 1 30 54
M  V30 END BOND
M  V30 END CTAB
M  END
>  <smiles>
CNc1cc(Nc2cccn(-c3ccc(C)nc3)c2=O)nc2c(C(=O)NC3CC3)cnn12
> <origin_smiles>
CNc1cc(Nc2cccn(-c3ccc(C)nc3)c2=O)nc2c(C(=O)NC3CC3)cnn12
> <inchi_key>
KYGOJEJGFNHTFC-UHFFFAOYSA-N

$$$$
lig_prepped.sdf
  ChemDraw02042614423D

  0  0  0     0  0              0 V3000
M  V30 BEGIN CTAB
M  V30 COUNTS 41 44 0 0 0
M  V30 BEGIN ATOM
M  V30 1 N -15.263163 5.724744 -0.965520 0
M  V30 2 C -12.023536 5.373922 -0.237090 0
M  V30 3 O -10.462585 7.379216 1.281564 0
M  V30 4 C -10.372587 2.537047 -1.292843 0
M  V30 5 C -11.686110 0.050989 -2.984443 0
M  V30 6 N -9.388976 -2.071087 -3.482358 0
M  V30 7 N -6.765457 -1.046586 -2.208783 0
M  V30 8 C -3.822840 -2.299720 -2.066153 0
M  V30 9 N -3.135767 -5.220953 -3.436068 0
M  V30 10 C -1.462732 -0.628564 -0.522354 0
M  V30 11 C -2.009758 2.246380 0.861190 0
M  V30 12 N 0.330847 4.018106 2.439766 0
M  V30 13 C 3.514315 3.123549 2.703411 0
M  V30 14 C 4.651369 2.665109 5.748712 0
M  V30 15 C 7.741315 1.802507 6.288220 0
M  V30 16 C 9.619722 1.423725 3.674100 0
M  V30 17 N 8.527783 1.865952 0.707751 0
M  V30 18 C 10.710720 1.399524 -1.779011 0
M  V30 19 C 12.705203 -1.177939 -1.474011 0
M  V30 20 C 14.943359 -1.894618 -3.733549 0
M  V30 21 C 15.071423 0.107384 -6.305606 0
M  V30 22 C 13.057200 2.642081 -6.531184 0
M  V30 23 N 10.916794 3.268999 -4.301020 0
M  V30 24 C 5.505040 2.710225 0.179523 0
M  V30 25 O 4.511089 3.117439 -2.572292 0
M  V30 26 N -4.967649 3.374505 0.647597 0
M  V30 27 C -7.258202 1.768907 -0.841453 0
M  V30 28 H -16.128818 7.312483 -2.612709 0
M  V30 29 H -16.822234 4.237340 0.293723 0
M  V30 30 H -14.159948 -0.062505 -3.730260 0
M  V30 31 H -4.051003 -7.379216 -2.741006 0
M  V30 32 H -1.548733 -5.257608 -5.346195 0
M  V30 33 H 0.849206 -1.675855 -0.433298 0
M  V30 34 H -0.304530 6.152401 3.500686 0
M  V30 35 H 3.099348 2.984442 7.762229 0
M  V30 36 H 8.705425 1.425841 8.607909 0
M  V30 37 H 12.047503 0.748167 4.050768 0
M  V30 38 H 12.595469 -2.740772 0.550551 0
M  V30 39 H 16.473999 -3.899677 -3.470139 0
M  V30 40 H 16.822234 -0.453270 -8.072634 0
M  V30 41 H 13.301105 4.094239 -8.607909 0
M  V30 END ATOM
M  V30 BEGIN BOND
M  V30 1 1 1 2
M  V30 2 2 2 3
M  V30 3 1 2 4
M  V30 4 1 4 5
M  V30 5 2 5 6
M  V30 6 1 6 7
M  V30 7 1 7 8
M  V30 8 1 8 9
M  V30 9 2 8 10
M  V30 10 1 10 11
M  V30 11 1 11 12
M  V30 12 1 12 13
M  V30 13 2 13 14
M  V30 14 1 14 15
M  V30 15 2 15 16
M  V30 16 1 16 17
M  V30 17 1 17 18
M  V30 18 2 18 19
M  V30 19 1 19 20
M  V30 20 2 20 21
M  V30 21 1 21 22
M  V30 22 2 22 23
M  V30 23 1 17 24
M  V30 24 2 24 25
M  V30 25 2 11 26
M  V30 26 1 26 27
M  V30 27 2 27 4
M  V30 28 1 27 7
M  V30 29 1 24 13
M  V30 30 1 23 18
M  V30 31 1 1 28
M  V30 32 1 1 29
M  V30 33 1 5 30
M  V30 34 1 9 31
M  V30 35 1 9 32
M  V30 36 1 10 33
M  V30 37 1 12 34
M  V30 38 1 14 35
M  V30 39 1 15 36
M  V30 40 1 16 37
M  V30 41 1 19 38
M  V30 42 1 20 39
M  V30 43 1 21 40
M  V30 44 1 22 41
M  V30 END BOND
M  V30 END CTAB
M  END
>  <smiles>
NC(=O)c1cnn2c(N)cc(Nc3cccn(-c4ccccn4)c3=O)nc12
> <origin_smiles>
NC(=O)c1cnn2c(N)cc(Nc3cccn(-c4ccccn4)c3=O)nc12
> <inchi_key>
JJFBDYHLIRBZSY-UHFFFAOYSA-N

$$$$
lig_prepped.sdf
  ChemDraw02042614423D

  0  0  0     0  0              0 V3000
M  V30 BEGIN CTAB
M  V30 COUNTS 62 66 0 0 1
M  V30 BEGIN ATOM
M  V30 1 C 1.981667 -9.660717 2.077782 0
M  V30 2 N 3.163439 -8.401727 -0.893662 0
M  V30 3 C 2.911357 -5.092061 -1.273191 0
M  V30 4 C 0.158664 -3.842692 -2.305921 0
M  V30 5 C -0.289635 -0.588890 -2.722533 0
M  V30 6 N -3.314124 0.260529 -3.744936 0
M  V30 7 C -5.370900 1.656360 -1.504852 0
M  V30 8 C -4.359529 2.531362 1.433969 0
M  V30 9 C -6.317492 3.737545 3.693300 0
M  V30 10 C -9.452530 4.070834 2.941989 0
M  V30 11 N -10.517651 3.228690 0.074287 0
M  V30 12 C -13.767227 3.466687 -0.623041 0
M  V30 13 C -15.232765 0.637476 -1.447112 0
M  V30 14 C -18.400430 0.511436 -2.162511 0
M  V30 15 C -20.006794 3.359423 -2.008542 0
M  V30 16 C -18.555808 6.128549 -1.197848 0
M  V30 17 C -20.490064 9.050704 -1.089646 0
M  V30 18 N -15.418891 6.178775 -0.503338 0
M  V30 19 C -8.578465 2.040112 -2.164154 0
M  V30 20 O -9.569886 1.264625 -4.824138 0
M  V30 21 N 2.143852 1.253125 -2.051260 0
M  V30 22 C 4.903822 0.034972 -1.016888 0
M  V30 23 C 7.713081 1.301475 -0.151270 0
M  V30 24 C 8.757079 4.548002 0.017485 0
M  V30 25 O 7.080770 6.770953 0.941544 0
M  V30 26 N 11.909253 5.200968 -0.926991 0
M  V30 27 C 13.307896 8.281086 -0.836863 0
M  V30 28 C 14.550692 9.293395 -4.007813 0
M  V30 29 C 17.387885 7.170667 -4.356829 0
M  V30 30 N 18.499945 6.547273 -1.224607 0 CHG=1
M  V30 31 C 21.603064 7.950142 -0.863619 0
M  V30 32 C 16.332151 7.894516 0.908919 0
M  V30 33 O 16.981129 8.543727 3.605988 0
M  V30 34 C 9.745214 -1.144921 0.740632 0
M  V30 35 N 8.117021 -3.768290 0.389973 0
M  V30 36 N 5.275605 -3.121894 -0.635010 0
M  V30 37 H 0.499699 -7.920333 3.310955 0
M  V30 38 H 0.614944 -11.786732 1.483260 0
M  V30 39 H 4.004645 -10.425876 3.507879 0
M  V30 40 H 4.118713 -9.893551 -2.576778 0
M  V30 41 H -1.748601 -5.490365 -2.816417 0
M  V30 42 H -4.181617 -0.060085 -6.005909 0
M  V30 43 H -1.878631 2.291487 2.096089 0
M  V30 44 H -5.461029 4.434401 6.005909 0
M  V30 45 H -11.086356 5.029160 4.709131 0
M  V30 46 H -13.957579 -1.538768 -1.554845 0
M  V30 47 H -19.597222 -1.643447 -2.808437 0
M  V30 48 H -22.521727 3.210618 -2.582177 0
M  V30 49 H -22.965330 8.576353 -1.526445 0
M  V30 50 H -19.440201 10.668334 -2.893638 0
M  V30 51 H -19.999284 10.124273 1.215687 0
M  V30 52 H 13.333010 3.371864 -1.747309 0
M  V30 53 H 11.742607 10.065362 0.206665 0
M  V30 54 H 12.817116 9.015497 -5.902871 0
M  V30 55 H 15.303177 11.786732 -3.694709 0
M  V30 56 H 19.212529 8.126646 -5.880575 0
M  V30 57 H 16.515226 4.918142 -5.436266 0
M  V30 58 H 18.584442 4.114020 -0.846956 0
M  V30 59 H 22.836238 6.727296 1.053736 0
M  V30 60 H 21.302399 10.400998 -0.144934 0
M  V30 61 H 22.965330 7.978542 -3.054415 0
M  V30 62 H 12.144431 -0.959030 1.537946 0
M  V30 END ATOM
M  V30 BEGIN BOND
M  V30 1 1 1 2
M  V30 2 1 2 3
M  V30 3 2 3 4
M  V30 4 1 4 5
M  V30 5 1 5 6
M  V30 6 1 6 7
M  V30 7 2 7 8
M  V30 8 1 8 9
M  V30 9 2 9 10
M  V30 10 1 10 11
M  V30 11 1 11 12
M  V30 12 2 12 13
M  V30 13 1 13 14
M  V30 14 2 14 15
M  V30 15 1 15 16
M  V30 16 1 16 17
M  V30 17 2 16 18
M  V30 18 1 11 19
M  V30 19 2 19 20
M  V30 20 2 5 21
M  V30 21 1 21 22
M  V30 22 2 22 23
M  V30 23 1 23 24
M  V30 24 2 24 25
M  V30 25 1 24 26
M  V30 26 1 26 27
M  V30 27 1 27 28
M  V30 28 1 28 29
M  V30 29 1 29 30
M  V30 30 1 30 31
M  V30 31 1 30 32
M  V30 32 2 32 33
M  V30 33 1 23 34
M  V30 34 2 34 35
M  V30 35 1 35 36
M  V30 36 1 36 3
M  V30 37 1 19 7
M  V30 38 1 36 22
M  V30 39 1 18 12
M  V30 40 1 32 27
M  V30 41 1 1 37
M  V30 42 1 1 38
M  V30 43 1 1 39
M  V30 44 1 2 40
M  V30 45 1 4 41
M  V30 46 1 6 42
M  V30 47 1 8 43
M  V30 48 1 9 44
M  V30 49 1 10 45
M  V30 50 1 13 46
M  V30 51 1 14 47
M  V30 52 1 15 48
M  V30 53 1 17 49
M  V30 54 1 17 50
M  V30 55 1 17 51
M  V30 56 1 26 52
M  V30 57 1 27 53 CFG=1
M  V30 58 1 28 54
M  V30 59 1 28 55
M  V30 60 1 29 56
M  V30 61 1 29 57
M  V30 62 1 30 58
M  V30 63 1 31 59
M  V30 64 1 31 60
M  V30 65 1 31 61
M  V30 66 1 34 62
M  V30 END BOND
M  V30 BEGIN COLLECTION
M  V30 MDLV30/STERAC1 ATOMS=(1 27)
M  V30 END COLLECTION
M  V30 END CTAB
M  END
>  <smiles>
CNc1cc(Nc2cccn(-c3cccc(C)n3)c2=O)nc2c(C(=O)N[C@@H]3CC[NH+](C)C3=O)cnn12
> <origin_smiles>
CNc1cc(Nc2cccn(-c3cccc(C)n3)c2=O)nc2c(C(=O)N[C@@H]3CCN(C)C3=O)cnn12
> <inchi_key>
XVCMXPOSWBDBNP-QGZVFWFLSA-O

$$$$
lig_prepped.sdf
  ChemDraw02042614423D

  0  0  0     0  0              0 V3000
M  V30 BEGIN CTAB
M  V30 COUNTS 63 67 0 0 1
M  V30 BEGIN ATOM
M  V30 1 C 19.523231 9.514080 3.692167 0
M  V30 2 C 16.092625 8.658315 3.206761 0
M  V30 3 O 15.914873 6.250857 1.019257 0
M  V30 4 C 12.761506 5.319887 0.452754 0
M  V30 5 C 12.260306 5.531591 -3.125900 0
M  V30 6 C 13.159922 2.088255 -3.243067 0
M  V30 7 C 12.351776 1.821391 0.156655 0
M  V30 8 N 9.412002 0.469847 1.022793 0
M  V30 9 C 9.238491 -2.049593 3.229629 0
M  V30 10 O 11.806492 -3.002722 4.363342 0
M  V30 11 C 6.246378 -3.475632 4.149518 0
M  V30 12 C 5.928354 -5.814721 6.368848 0
M  V30 13 N 2.812000 -6.570060 6.614026 0
M  V30 14 N 1.231075 -4.747727 4.599560 0
M  V30 15 C -1.898950 -4.718260 4.080443 0
M  V30 16 N -4.029877 -6.715280 5.685416 0
M  V30 17 C -4.917231 -9.833281 4.534965 0
M  V30 18 C -2.965474 -2.585683 1.842960 0
M  V30 19 C -0.974347 -0.590784 0.219364 0
M  V30 20 N -2.164637 1.557116 -2.057254 0
M  V30 21 C -5.472891 1.539671 -2.614563 0
M  V30 22 C -6.449122 -0.204864 -5.039466 0
M  V30 23 C -9.791084 -0.378374 -5.802583 0
M  V30 24 C -11.873916 1.188406 -4.096946 0
M  V30 25 N -10.855015 3.063073 -1.488867 0
M  V30 26 C -13.213437 4.681248 0.292682 0
M  V30 27 C -12.504778 6.537528 2.868701 0
M  V30 28 C -14.837740 8.062579 4.536616 0
M  V30 29 C -18.012793 7.798778 3.696882 0
M  V30 30 C -18.627861 5.917745 1.102240 0
M  V30 31 N -16.300322 4.459645 -0.477506 0
M  V30 32 C -7.599337 3.385342 -0.583594 0
M  V30 33 O -6.806514 6.618152 -0.779500 0
M  V30 34 N 2.166286 -0.768774 0.885117 0
M  V30 35 C 3.246012 -2.837697 3.062013 0
M  V30 36 H 21.008442 7.498908 3.048810 0
M  V30 37 H 19.923059 10.073510 6.204533 0
M  V30 38 H 20.048005 11.541041 2.092382 0
M  V30 39 H 14.704306 10.737376 2.396260 0
M  V30 40 H 15.186647 7.763651 5.491632 0
M  V30 41 H 11.036305 6.633475 1.832353 0
M  V30 42 H 9.834226 6.157265 -3.771141 0
M  V30 43 H 13.886262 7.174754 -4.349667 0
M  V30 44 H 15.724152 1.935254 -3.751574 0
M  V30 45 H 11.901736 0.596915 -4.945167 0
M  V30 46 H 14.329703 0.637700 1.429457 0
M  V30 47 H 7.315731 1.320190 0.037132 0
M  V30 48 H 7.692457 -6.984740 7.779565 0
M  V30 49 H -4.989607 -5.877196 7.788050 0
M  V30 50 H -7.131376 -10.625867 5.672450 0
M  V30 51 H -3.020167 -11.541041 4.997269 0
M  V30 52 H -5.238792 -9.774816 1.913685 0
M  V30 53 H -5.483263 -2.578138 1.438181 0
M  V30 54 H -0.588900 3.043505 -3.214775 0
M  V30 55 H -4.792048 -1.525760 -6.489787 0
M  V30 56 H -10.483476 -1.816909 -7.788050 0
M  V30 57 H -14.408915 1.081848 -4.645059 0
M  V30 58 H -10.092607 6.824903 3.623565 0
M  V30 59 H -14.367188 9.528461 6.559334 0
M  V30 60 H -19.877560 8.944984 4.930786 0
M  V30 61 H -21.008442 5.543848 0.239167 0
M  V30 62 H -7.227089 2.793142 1.958948 0
M  V30 63 H -8.514273 7.824711 -1.835887 0
M  V30 END ATOM
M  V30 BEGIN BOND
M  V30 1 1 1 2
M  V30 2 1 2 3
M  V30 3 1 3 4
M  V30 4 1 4 5
M  V30 5 1 5 6
M  V30 6 1 6 7
M  V30 7 1 7 8
M  V30 8 1 8 9
M  V30 9 2 9 10
M  V30 10 1 9 11
M  V30 11 1 11 12
M  V30 12 2 12 13
M  V30 13 1 13 14
M  V30 14 1 14 15
M  V30 15 1 15 16
M  V30 16 1 16 17
M  V30 17 2 15 18
M  V30 18 1 18 19
M  V30 19 1 19 20
M  V30 20 1 20 21
M  V30 21 2 21 22
M  V30 22 1 22 23
M  V30 23 2 23 24
M  V30 24 1 24 25
M  V30 25 1 25 26
M  V30 26 2 26 27
M  V30 27 1 27 28
M  V30 28 2 28 29
M  V30 29 1 29 30
M  V30 30 2 30 31
M  V30 31 1 25 32
M  V30 32 1 32 33
M  V30 33 2 19 34
M  V30 34 1 34 35
M  V30 35 1 7 4
M  V30 36 2 35 11
M  V30 37 1 35 14
M  V30 38 1 32 21
M  V30 39 1 31 26
M  V30 40 1 1 36
M  V30 41 1 1 37
M  V30 42 1 1 38
M  V30 43 1 2 39
M  V30 44 1 2 40
M  V30 45 1 4 41 CFG=1
M  V30 46 1 5 42
M  V30 47 1 5 43
M  V30 48 1 6 44
M  V30 49 1 6 45
M  V30 50 1 7 46 CFG=1
M  V30 51 1 8 47
M  V30 52 1 12 48
M  V30 53 1 16 49
M  V30 54 1 17 50
M  V30 55 1 17 51
M  V30 56 1 17 52
M  V30 57 1 18 53
M  V30 58 1 20 54
M  V30 59 1 22 55
M  V30 60 1 23 56
M  V30 61 1 24 57
M  V30 62 1 27 58
M  V30 63 1 28 59
M  V30 64 1 29 60
M  V30 65 1 30 61
M  V30 66 1 32 62
M  V30 67 1 33 63
M  V30 END BOND
M  V30 BEGIN COLLECTION
M  V30 MDLV30/STERAC1 ATOMS=(2 4 7)
M  V30 END COLLECTION
M  V30 END CTAB
M  END
>  <smiles>
CCO[C@H]1CC[C@@H]1NC(=O)c1cnn2c(NC)cc(NC3=CC=CN(c4ccccn4)C3O)nc12
> <origin_smiles>
CCO[C@H]1CC[C@@H]1NC(=O)c1cnn2c(NC)cc(NC3=CC=C[NH+](c4ccccn4)C3O)nc12
> <inchi_key>
JZVSBXDEIIXOMK-READRUSDSA-N

$$$$
