/home/public/agent/runjob/dock/pdbqt_output/ligand_3_docking.pdbqt
 OpenBabel01312618553D

 35 37  0  0  0  0  0  0  0  0999 V2000
    6.5590  -40.3710   26.3530 N   0  0  0  0  0  0  0  0  0  0  0  0
    6.0120  -39.7420   24.8760 H   0  0  0  0  0 15  0  0  0  0  0  0
    5.9940  -41.4270   25.5890 C   0  0  0  0  0  0  0  0  0  0  0  0
    5.1470  -42.4010   23.5290 C   0  0  0  0  0  0  0  0  0  0  0  0
    5.6910  -41.3380   24.2540 C   0  0  0  0  0  3  0  0  0  0  0  0
    4.9360  -43.5330   24.2280 N   0  0  0  0  0  0  0  0  0  0  0  0
    4.4530  -44.7020   23.8740 N   0  0  0  0  0  0  0  0  0  0  0  0
    5.2410  -43.6120   25.5530 C   0  0  0  0  0  0  0  0  0  0  0  0
    5.7620  -42.5830   26.2360 N   0  0  0  0  0  0  0  0  0  0  0  0
    4.4110  -45.5760   24.8840 C   0  0  0  0  0  3  0  0  0  0  0  0
    4.9140  -44.8980   25.9790 C   0  0  0  0  0  0  0  0  0  0  0  0
    4.8500  -42.2500   22.1530 N   0  0  0  0  0  2  0  0  0  0  0  0
    3.6460  -42.6570   21.5070 C   0  0  0  0  0  1  0  0  0  0  0  0
    6.6450  -40.8500   26.7470 H   0  0  0  0  0  0  0  0  0  0  0  0
    5.0550  -45.4790   27.3070 C   0  0  0  0  0  0  0  0  0  0  0  0
    4.5810  -44.8420   28.2970 O   0  0  0  0  0  0  0  0  0  0  0  0
    5.6960  -46.7200   27.5590 N   0  0  0  0  0  2  0  0  0  0  0  0
    0.7340  -44.5090   25.9460 H   0  0  0  0  0 15  0  0  0  0  0  0
    5.8010  -47.2390   28.9170 C   0  0  0  0  0  3  0  0  0  0  0  0
    6.8970  -48.2930   29.0780 C   0  0  0  0  0  2  0  0  0  0  0  0
    6.9540  -46.9550   29.7750 C   0  0  0  0  0  2  0  0  0  0  0  0
    7.5490  -39.5340   25.7590 C   0  0  0  0  0  0  0  0  0  0  0  0
    8.6560  -40.0920   25.1340 C   0  0  0  0  0  3  0  0  0  0  0  0
    7.4340  -38.1620   25.7770 C   0  0  0  0  0  0  0  0  0  0  0  0
    9.6250  -39.3100   24.5430 C   0  0  0  0  0  3  0  0  0  0  0  0
    8.3790  -37.3830   25.1980 N   0  0  0  0  0  0  0  0  0  0  0  0
    6.4480  -37.5950   26.3310 O   0  0  0  0  0  0  0  0  0  0  0  0
    9.4500  -37.9390   24.5940 C   0  0  0  0  0  3  0  0  0  0  0  0
    8.2960  -35.9680   25.1800 C   0  0  0  0  0  0  0  0  0  0  0  0
    7.2500  -35.2630   24.6240 C   0  0  0  0  0  3  0  0  0  0  0  0
    9.3670  -35.2890   25.7690 C   0  0  0  0  0  3  0  0  0  0  0  0
    7.3350  -33.8810   24.6920 C   0  0  0  0  0  3  0  0  0  0  0  0
    9.3990  -33.9540   25.8070 N   0  0  0  0  0  0  0  0  0  0  0  0
    8.3900  -33.2410   25.2720 C   0  0  0  0  0  0  0  0  0  0  0  0
    8.5170  -31.7550   25.3570 C   0  0  0  0  0  1  0  0  0  0  0  0
  1 14  1  0  0  0  0
  3  9  2  0  0  0  0
  3  1  1  0  0  0  0
  4  6  1  0  0  0  0
  4  5  2  0  0  0  0
  5  3  1  0  0  0  0
  6  8  1  0  0  0  0
  7  6  1  0  0  0  0
  7 10  2  0  0  0  0
  8 11  2  0  0  0  0
  8  9  1  0  0  0  0
 10 11  1  0  0  0  0
 11 15  1  0  0  0  0
 12  4  1  0  0  0  0
 13 12  1  0  0  0  0
 15 17  1  0  0  0  0
 15 16  2  0  0  0  0
 17 19  1  0  0  0  0
 19 20  1  0  0  0  0
 19 21  1  0  0  0  0
 20 21  1  0  0  0  0
 22 24  1  0  0  0  0
 22  1  1  0  0  0  0
 23 22  2  0  0  0  0
 24 27  2  0  0  0  0
 25 28  2  0  0  0  0
 25 23  1  0  0  0  0
 26 24  1  0  0  0  0
 28 26  1  0  0  0  0
 29 26  1  0  0  0  0
 29 31  1  0  0  0  0
 30 32  1  0  0  0  0
 30 29  2  0  0  0  0
 31 33  2  0  0  0  0
 32 34  2  0  0  0  0
 34 35  1  0  0  0  0
 34 33  1  0  0  0  0
M  END
>  <MODEL>
1

>  <REMARK>
 VINA RESULT:   -10.380      0.000      0.000
 INTER + INTRA:         -14.443
 INTER:                 -14.021
 INTRA:                  -0.423
 UNBOUND:                -0.423
 SMILES CNc1cc(Nc2cccn(-c3ccc(C)nc3)c2=O)nc2c(C(=O)NC3CC3)cnn12
 SMILES IDX 6 1 5 3 3 4 4 5 32 6 31 7 22 8 21 9 30 10 23 11 2 12 1 13
 SMILES IDX 24 15 25 16 26 17 27 19 28 20 29 21 7 22 8 23 19 24 9 25
 SMILES IDX 11 26 20 27 10 28 12 29 13 30 18 31 14 32 17 33 15 34 16 35
 H PARENT 6 2 2 14 26 18

>  <TORSDO>
F 6

$$$$
