/home/public/agent/runjob/dock/pdbqt_output/ligand_1_docking.pdbqt
 OpenBabel01312618553D

 40 41  0  0  0  0  0  0  0  0999 V2000
    6.5950  -39.6970   24.6760 C   0  0  0  0  0  0  0  0  0  0  0  0
    7.6300  -40.5710   24.9240 C   0  0  0  0  0  3  0  0  0  0  0  0
    8.8520  -40.0860   25.3320 C   0  0  0  0  0  3  0  0  0  0  0  0
    9.0040  -38.7350   25.4800 C   0  0  0  0  0  3  0  0  0  0  0  0
    8.0060  -37.8350   25.2450 N   0  0  0  0  0  0  0  0  0  0  0  0
    6.8380  -38.3340   24.8530 C   0  0  0  0  0  0  0  0  0  0  0  0
    5.8740  -37.5750   24.6200 O   0  0  0  0  0  0  0  0  0  0  0  0
    5.3200  -40.1490   24.1770 N   0  0  0  0  0  0  0  0  0  0  0  0
    5.9150  -40.6160   24.9560 H   0  0  0  0  0  0  0  0  0  0  0  0
    5.0270  -41.5440   24.1250 C   0  0  0  0  0  0  0  0  0  0  0  0
    4.1960  -43.2940   22.6950 C   0  0  0  0  0  0  0  0  0  0  0  0
    4.5230  -41.9740   22.8860 C   0  0  0  0  0  3  0  0  0  0  0  0
    4.3780  -44.1260   23.7320 N   0  0  0  0  0  0  0  0  0  0  0  0
    4.1300  -45.4210   23.7730 N   0  0  0  0  0  0  0  0  0  0  0  0
    4.8680  -43.6970   24.9320 C   0  0  0  0  0  0  0  0  0  0  0  0
    5.1960  -42.4020   25.1350 N   0  0  0  0  0  0  0  0  0  0  0  0
    4.4300  -45.9300   24.9730 C   0  0  0  0  0  3  0  0  0  0  0  0
    4.9000  -44.8450   25.7200 C   0  0  0  0  0  0  0  0  0  0  0  0
    3.7030  -43.7120   21.4360 N   0  0  0  0  0  2  0  0  0  0  0  0
    2.9630  -42.8730   20.5180 C   0  0  0  0  0  1  0  0  0  0  0  0
    7.3920  -42.7860   23.8800 H   0  0  0  0  0 15  0  0  0  0  0  0
    5.3400  -44.9610   27.1200 C   0  0  0  0  0  0  0  0  0  0  0  0
    4.5460  -44.7710   28.0750 O   0  0  0  0  0  0  0  0  0  0  0  0
    6.6750  -45.2880   27.4070 N   0  0  0  0  0  2  0  0  0  0  0  0
    0.2450  -43.4790   25.2650 H   0  0  0  0  0 15  0  0  0  0  0  0
    7.2870  -45.4420   28.6820 C   0  0  0  0  0  3  0  0  0  0  0  0
    8.7840  -45.6520   28.6800 C   0  0  0  0  0  2  0  0  0  0  0  0
    7.1350  -46.8210   29.3120 C   0  0  0  0  0  2  0  0  0  0  0  0
    8.5720  -47.1350   28.9440 C   0  0  0  0  0  2  0  0  0  0  0  0
    8.3310  -36.4800   25.4120 C   0  0  0  0  0  0  0  0  0  0  0  0
    9.5910  -35.9830   25.6510 C   0  0  0  0  0  3  0  0  0  0  0  0
    7.3430  -35.5430   25.3590 N   0  0  0  0  0  0  0  0  0  0  0  0
    9.8280  -34.6100   25.8260 C   0  0  0  0  0  3  0  0  0  0  0  0
    7.5290  -34.2320   25.5210 C   0  0  0  0  0  0  0  0  0  0  0  0
    8.7780  -33.7280   25.7600 C   0  0  0  0  0  3  0  0  0  0  0  0
    6.3840  -33.2700   25.4710 C   0  0  0  0  0  0  0  0  0  0  0  0
    6.8410  -32.0040   24.7460 C   0  0  0  0  0  1  0  0  0  0  0  0
    5.2050  -33.8660   24.7180 C   0  0  0  0  0  1  0  0  0  0  0  0
    5.9880  -33.0140   26.7790 O   0  0  0  0  0  1  0  0  0  0  0  0
    4.5100  -27.9910   19.3700 H   0  0  0  0  0 15  0  0  0  0  0  0
  1  6  1  0  0  0  0
  1  2  2  0  0  0  0
  2  3  1  0  0  0  0
  3  4  2  0  0  0  0
  5 30  1  0  0  0  0
  5  4  1  0  0  0  0
  6  5  1  0  0  0  0
  7  6  2  0  0  0  0
  8  1  1  0  0  0  0
  8  9  1  0  0  0  0
 10  8  1  0  0  0  0
 10 16  2  0  0  0  0
 11 12  2  0  0  0  0
 11 13  1  0  0  0  0
 12 10  1  0  0  0  0
 13 14  1  0  0  0  0
 13 15  1  0  0  0  0
 14 17  2  0  0  0  0
 15 16  1  0  0  0  0
 15 18  2  0  0  0  0
 17 18  1  0  0  0  0
 18 22  1  0  0  0  0
 19 11  1  0  0  0  0
 20 19  1  0  0  0  0
 22 24  1  0  0  0  0
 22 23  2  0  0  0  0
 24 26  1  0  0  0  0
 26 28  1  0  0  0  0
 27 26  1  0  0  0  0
 27 29  1  0  0  0  0
 29 28  1  0  0  0  0
 30 31  1  0  0  0  0
 31 33  2  0  0  0  0
 32 30  2  0  0  0  0
 32 34  1  0  0  0  0
 34 35  2  0  0  0  0
 35 33  1  0  0  0  0
 36 34  1  0  0  0  0
 36 39  1  0  0  0  0
 37 36  1  0  0  0  0
 38 36  1  0  0  0  0
M  END
>  <MODEL>
1

>  <REMARK>
 VINA RESULT:   -11.388      0.000      0.000
 INTER + INTRA:         -14.887
 INTER:                 -15.383
 INTRA:                   0.496
 UNBOUND:                 0.496
 SMILES CNc1cc(Nc2cccn(-c3cccc(C(C)(C)O)n3)c2=O)nc2c(C(=O)NC3CCC3)cnn12
 SMILES IDX 7 1 8 2 9 3 10 4 11 5 22 6 23 7 6 8 5 10 3 11 4 12 36 13
 SMILES IDX 35 14 25 15 24 16 34 17 26 18 2 19 1 20 27 22 28 23 29 24
 SMILES IDX 30 26 31 27 33 28 32 29 12 30 13 31 21 32 14 33 16 34 15 35
 SMILES IDX 17 36 18 37 19 38 20 39
 H PARENT 6 9 2 21 29 25 20 40

>  <TORSDO>
F 8

$$$$
