/home/public/agent/runjob/dock/pdbqt_output/ligand_2_docking.pdbqt
 OpenBabel01312618553D

 38 37  0  0  1  0  0  0  0  0999 V2000
    5.1390  -42.2730   23.3820 C   0  0  1  0  0  3  0  0  0  0  0  0
    5.6860  -41.1400   23.9720 C   0  0  0  0  0  1  0  0  0  0  0  0
    6.0740  -41.1080   25.2860 C   0  0  0  0  0  1  0  0  0  0  0  0
    5.8950  -42.2590   25.9840 N   0  0  0  0  0  2  0  0  0  0  0  0
    5.3700  -43.3500   25.4260 C   0  0  0  0  0  0  0  0  0  0  0  0
    5.1110  -44.5960   25.9900 C   0  0  0  0  0  0  0  0  0  0  0  0
    4.5620  -45.3340   24.9750 C   0  0  0  0  0  3  0  0  0  0  0  0
    4.5020  -44.5590   23.8530 N   0  0  0  0  0  0  0  0  0  0  0  0
    4.9910  -43.3670   24.1380 N   0  0  0  0  0  0  0  0  0  0  0  0
    4.7480  -42.2660   22.0200 N   0  0  0  0  0  2  0  0  0  0  0  0
    3.4060  -42.6360   21.5900 C   0  0  0  0  0  1  0  0  0  0  0  0
    6.4630  -42.0630   25.3280 H   0  0  0  0  0  0  0  0  0  0  0  0
    6.6330  -40.0200   25.9560 N   0  0  0  0  0  1  0  0  0  0  0  0
    5.7760  -41.4490   25.4720 H   0  0  0  0  0  0  0  0  0  0  0  0
    7.5740  -39.0800   25.5260 C   0  0  0  0  0  0  0  0  0  0  0  0
    8.7420  -39.6170   24.9440 C   0  0  0  0  0  3  0  0  0  0  0  0
    7.5000  -37.7190   25.6150 C   0  0  0  0  0  0  0  0  0  0  0  0
    9.7560  -38.7980   24.4930 C   0  0  0  0  0  3  0  0  0  0  0  0
    8.4760  -36.9300   25.1780 N   0  0  0  0  0  0  0  0  0  0  0  0
    6.4830  -37.1820   26.1260 O   0  0  0  0  0  0  0  0  0  0  0  0
    9.6080  -37.4510   24.6170 C   0  0  0  0  0  3  0  0  0  0  0  0
    8.4550  -35.5020   25.2140 C   0  0  0  0  0  0  0  0  0  0  0  0
    9.5490  -34.8050   25.6640 C   0  0  0  0  0  3  0  0  0  0  0  0
    7.3300  -34.7700   24.8430 C   0  0  0  0  0  3  0  0  0  0  0  0
    9.5560  -33.4590   25.7490 N   0  0  0  0  0  0  0  0  0  0  0  0
    7.3350  -33.3950   24.9270 C   0  0  0  0  0  0  0  0  0  0  0  0
    8.4730  -32.7290   25.3900 C   0  0  0  0  0  3  0  0  0  0  0  0
    6.2620  -32.6350   24.5820 F   0  0  0  0  0  0  0  0  0  0  0  0
    5.3980  -44.9850   27.3630 C   0  0  0  0  0  0  0  0  0  0  0  0
    4.5180  -44.9110   28.2890 O   0  0  0  0  0  0  0  0  0  0  0  0
    6.7370  -45.4690   27.6570 N   0  0  0  0  0  2  0  0  0  0  0  0
    2.3000  -43.0600   25.8120 H   0  0  0  0  0 15  0  0  0  0  0  0
    7.1080  -45.8800   28.9960 C   0  0  1  0  0  3  0  0  0  0  0  0
    6.9590  -47.2910   29.3740 C   0  0  0  0  0  2  0  0  0  0  0  0
    8.6450  -46.0620   29.1200 C   0  0  2  0  0  3  0  0  0  0  0  0
    8.3170  -47.1870   30.0940 C   0  0  0  0  0  2  0  0  0  0  0  0
    9.2680  -45.0330   29.8250 O   0  0  0  0  0  1  0  0  0  0  0  0
   10.9660  -49.4560   34.5710 H   0  0  0  0  0 15  0  0  0  0  0  0
  1  2  1  1  0  0  0
  1  9  1  0  0  0  0
  3 14  1  0  0  0  0
  5  4  1  0  0  0  0
  5  6  2  0  0  0  0
  6 29  1  0  0  0  0
  7  6  1  0  0  0  0
  8  9  1  0  0  0  0
  8  7  2  0  0  0  0
  9  5  1  0  0  0  0
 10  1  1  0  0  0  0
 11 10  1  0  0  0  0
 12  4  1  0  0  0  0
 15 17  1  0  0  0  0
 15 13  1  0  0  0  0
 16 15  2  0  0  0  0
 17 20  2  0  0  0  0
 18 21  2  0  0  0  0
 18 16  1  0  0  0  0
 19 22  1  0  0  0  0
 19 17  1  0  0  0  0
 21 19  1  0  0  0  0
 22 23  1  0  0  0  0
 23 25  2  0  0  0  0
 24 26  1  0  0  0  0
 24 22  2  0  0  0  0
 26 27  2  0  0  0  0
 27 25  1  0  0  0  0
 28 26  1  0  0  0  0
 29 31  1  0  0  0  0
 29 30  2  0  0  0  0
 33 31  1  6  0  0  0
 33 35  1  0  0  0  0
 33 34  1  0  0  0  0
 34 36  1  0  0  0  0
 35 37  1  1  0  0  0
 35 36  1  0  0  0  0
M  END
>  <MODEL>
1

>  <REMARK>
 VINA RESULT:   -10.602      0.000      0.000
 INTER + INTRA:         -15.058
 INTER:                 -14.631
 INTRA:                  -0.427
 UNBOUND:                -0.427
 SMILES CNc1cc(Nc2cccn(-c3cncc(F)c3)c2=O)nc2c(C(=O)N[C@H]3CC[C@@H]3O)cnn12
 SMILES IDX 3 1 4 2 5 3 21 4 22 5 23 6 32 7 33 8 34 9 2 10 1 11 6 13
 SMILES IDX 7 15 8 16 19 17 9 18 11 19 20 20 10 21 12 22 13 23 18 24
 SMILES IDX 14 25 16 26 15 27 17 28 24 29 25 30 26 31 27 33 28 34 30 35
 SMILES IDX 29 36 31 37
 H PARENT 2 12 6 14 26 32 31 38

>  <TORSDO>
F 7

$$$$
