/home/public/agent/runjob/dock/pdbqt_output/ligand_4_docking.pdbqt
 OpenBabel01312618553D

 32 31  0  0  1  0  0  0  0  0999 V2000
    4.8500  -44.7940   25.6710 C   0  0  0  0  0  0  0  0  0  0  0  0
    4.0670  -45.2650   24.6150 C   0  0  0  0  0  3  0  0  0  0  0  0
    4.1200  -44.3440   23.6330 N   0  0  0  0  0  0  0  0  0  0  0  0
    4.8820  -43.3430   24.0190 N   0  0  0  0  0  0  0  0  0  0  0  0
    5.2450  -42.1840   23.4020 C   0  0  1  0  0  3  0  0  0  0  0  0
    6.0820  -41.2950   24.0760 C   0  0  0  0  0  3  0  0  0  0  0  0
    6.5510  -41.5500   25.3460 C   0  0  0  0  0  0  0  0  0  0  0  0
    6.1580  -42.7120   25.9100 N   0  0  0  0  0  0  0  0  0  0  0  0
    5.3510  -43.5760   25.2620 C   0  0  0  0  0  0  0  0  0  0  0  0
    5.0790  -45.4740   26.9510 C   0  0  0  0  0  0  0  0  0  0  0  0
    5.1670  -44.6970   28.1370 N   0  0  0  0  0  1  0  0  0  0  0  0
    5.1880  -46.7290   26.9320 O   0  0  0  0  0  0  0  0  0  0  0  0
    5.1550  -47.0880   21.2180 H   0  0  0  0  0 15  0  0  0  0  0  0
    5.1550  -47.0880   21.2180 H   0  0  0  0  0 15  0  0  0  0  0  0
    7.3990  -40.6670   26.0640 N   0  0  0  0  0  2  0  0  0  0  0  0
    6.2890  -40.0750   24.7460 H   0  0  0  0  0  0  0  0  0  0  0  0
    7.8320  -39.4100   25.5940 C   0  0  0  0  0  0  0  0  0  0  0  0
    9.0970  -39.3720   25.0020 C   0  0  0  0  0  3  0  0  0  0  0  0
    7.0940  -38.2480   25.6930 C   0  0  0  0  0  0  0  0  0  0  0  0
    9.6270  -38.1900   24.5110 C   0  0  0  0  0  3  0  0  0  0  0  0
    7.6120  -37.0930   25.2120 N   0  0  0  0  0  0  0  0  0  0  0  0
    5.9550  -38.2690   26.2240 O   0  0  0  0  0  0  0  0  0  0  0  0
    8.8430  -37.0620   24.6380 C   0  0  0  0  0  3  0  0  0  0  0  0
    6.9090  -35.8590   25.2810 C   0  0  0  0  0  0  0  0  0  0  0  0
    5.7200  -35.7920   24.5570 C   0  0  0  0  0  3  0  0  0  0  0  0
    7.3290  -34.8000   25.9850 N   0  0  0  0  0  0  0  0  0  0  0  0
    4.9390  -34.6460   24.5390 C   0  0  0  0  0  3  0  0  0  0  0  0
    6.5960  -33.6750   25.9890 C   0  0  0  0  0  3  0  0  0  0  0  0
    5.4130  -33.5740   25.2840 C   0  0  0  0  0  3  0  0  0  0  0  0
    4.7960  -41.8750   22.1080 N   0  0  0  0  0  1  0  0  0  0  0  0
    3.3660  -43.3300   24.9850 H   0  0  0  0  0 15  0  0  0  0  0  0
    3.3660  -43.3300   24.9850 H   0  0  0  0  0 15  0  0  0  0  0  0
  1 10  1  0  0  0  0
  2  1  1  0  0  0  0
  3  4  1  0  0  0  0
  3  2  2  0  0  0  0
  4  9  1  0  0  0  0
  5 30  1  6  0  0  0
  5  4  1  0  0  0  0
  5  6  1  0  0  0  0
  6 16  1  0  0  0  0
  6  7  1  0  0  0  0
  7  8  2  0  0  0  0
  7 15  1  0  0  0  0
  9  1  2  0  0  0  0
  9  8  1  0  0  0  0
 10 11  1  0  0  0  0
 12 10  2  0  0  0  0
 17 19  1  0  0  0  0
 17 15  1  0  0  0  0
 18 17  2  0  0  0  0
 19 22  2  0  0  0  0
 20 23  2  0  0  0  0
 20 18  1  0  0  0  0
 21 24  1  0  0  0  0
 21 19  1  0  0  0  0
 23 21  1  0  0  0  0
 24 26  1  0  0  0  0
 25 24  2  0  0  0  0
 26 28  2  0  0  0  0
 27 25  1  0  0  0  0
 27 29  2  0  0  0  0
 29 28  1  0  0  0  0
M  END
>  <MODEL>
1

>  <REMARK>
 VINA RESULT:    -9.945      0.000      0.000
 INTER + INTRA:         -12.875
 INTER:                 -12.561
 INTRA:                  -0.314
 UNBOUND:                -0.314
 SMILES NC(=O)c1cnn2c(N)cc(Nc3cccn(-c4ccccn4)c3=O)nc12
 SMILES IDX 4 1 5 2 6 3 7 4 8 5 10 6 11 7 26 8 27 9 2 10 1 11 3 12 12 15
 SMILES IDX 13 17 14 18 24 19 15 20 17 21 25 22 16 23 18 24 19 25 23 26
 SMILES IDX 20 27 22 28 21 29 9 30
 H PARENT 1 13 1 14 12 16 9 31 9 32

>  <TORSDO>
F 5

$$$$
