/home/public/agent/runjob/dock/pdbqt_output/ligand_6_docking.pdbqt
 OpenBabel01312618563D

 39 38  0  0  1  0  0  0  0  0999 V2000
    5.3030  -45.0970   26.1010 C   0  0  0  0  0  0  0  0  0  0  0  0
    4.2450  -45.3530   25.2620 C   0  0  0  0  0  3  0  0  0  0  0  0
    4.1240  -44.3120   24.3890 N   0  0  0  0  0  0  0  0  0  0  0  0
    5.0810  -43.4310   24.6780 N   0  0  0  0  0  0  0  0  0  0  0  0
    5.3240  -42.2580   24.0630 C   0  0  1  0  0  3  0  0  0  0  0  0
    6.3890  -41.5190   24.5580 C   0  0  0  0  0  2  0  0  0  0  0  0
    7.1650  -41.9420   25.6160 C   0  0  0  0  0  1  0  0  0  0  0  0
    6.8530  -43.1420   26.1840 N   0  0  0  0  0  1  0  0  0  0  0  0
    5.8170  -43.8760   25.7140 C   0  0  0  0  0  3  0  0  0  0  0  0
    5.7450  -45.9850   27.1710 C   0  0  0  0  0  0  0  0  0  0  0  0
    6.8520  -45.6700   28.0080 N   0  0  0  0  0  2  0  0  0  0  0  0
    5.1590  -47.0750   27.3980 O   0  0  0  0  0  0  0  0  0  0  0  0
    7.0450  -42.0840   26.6900 H   0  0  0  0  0 15  0  0  0  0  0  0
    7.2670  -46.5510   29.0430 C   0  0  2  0  0  3  0  0  0  0  0  0
    6.9090  -46.2140   30.4600 C   0  0  2  0  0  3  0  0  0  0  0  0
    8.3500  -45.7150   30.6390 C   0  0  0  0  0  2  0  0  0  0  0  0
    8.6990  -46.5680   29.4420 C   0  0  0  0  0  2  0  0  0  0  0  0
    6.7730  -47.3480   31.2940 O   0  0  0  0  0  0  0  0  0  0  0  0
    5.8300  -48.2340   30.8080 C   0  0  0  0  0  2  0  0  0  0  0  0
    4.6280  -48.2180   31.7280 C   0  0  0  0  0  1  0  0  0  0  0  0
    8.2490  -41.1550   26.0900 N   0  0  0  0  0  1  0  0  0  0  0  0
    6.9950  -42.1600   26.8010 H   0  0  0  0  0  0  0  0  0  0  0  0
    8.4010  -39.8530   25.5380 C   0  0  0  0  0  0  0  0  0  0  0  0
    9.6090  -39.5630   25.0530 C   0  0  0  0  0  3  0  0  0  0  0  0
    7.2690  -38.9120   25.5310 C   0  0  0  0  0  0  0  0  0  0  0  0
    9.8660  -38.2550   24.4660 C   0  0  0  0  0  3  0  0  0  0  0  0
    7.6070  -37.6490   24.9260 N   0  0  0  0  0  0  0  0  0  0  0  0
    8.9060  -37.3500   24.4100 C   0  0  0  0  0  3  0  0  0  0  0  0
    6.8560  -38.6550   26.8590 O   0  0  0  0  0  0  0  0  0  0  0  0
    5.6760  -42.1050   25.7390 H   0  0  0  0  0  0  0  0  0  0  0  0
    6.6030  -36.6380   24.8270 C   0  0  0  0  0  0  0  0  0  0  0  0
    6.8610  -35.3040   25.0710 C   0  0  0  0  0  3  0  0  0  0  0  0
    5.3310  -36.9470   24.4850 N   0  0  0  0  0  0  0  0  0  0  0  0
    5.8690  -34.3540   24.9660 C   0  0  0  0  0  3  0  0  0  0  0  0
    4.3420  -36.0440   24.3750 C   0  0  0  0  0  3  0  0  0  0  0  0
    4.5610  -34.6980   24.6110 C   0  0  0  0  0  3  0  0  0  0  0  0
    4.5570  -41.7830   22.9750 N   0  0  0  0  0  2  0  0  0  0  0  0
    4.3770  -42.5330   21.7360 C   0  0  0  0  0  1  0  0  0  0  0  0
    7.4950  -42.0710   26.3590 H   0  0  0  0  0  0  0  0  0  0  0  0
  1 10  1  0  0  0  0
  2  1  1  0  0  0  0
  3  4  1  0  0  0  0
  3  2  2  0  0  0  0
  4  9  1  0  0  0  0
  5  6  1  6  0  0  0
  5  4  1  0  0  0  0
  6 30  1  0  0  0  0
  7 39  1  0  0  0  0
  8 22  1  0  0  0  0
  9  1  2  0  0  0  0
 10 12  2  0  0  0  0
 10 11  1  0  0  0  0
 14 11  1  6  0  0  0
 14 17  1  0  0  0  0
 14 15  1  0  0  0  0
 15 16  1  0  0  0  0
 15 18  1  1  0  0  0
 17 16  1  0  0  0  0
 19 18  1  0  0  0  0
 19 20  1  0  0  0  0
 23 21  1  0  0  0  0
 24 23  2  0  0  0  0
 25 23  1  0  0  0  0
 25 29  2  0  0  0  0
 26 24  1  0  0  0  0
 27 25  1  0  0  0  0
 28 26  2  0  0  0  0
 28 27  1  0  0  0  0
 31 27  1  0  0  0  0
 31 32  1  0  0  0  0
 33 31  2  0  0  0  0
 34 32  2  0  0  0  0
 35 33  1  0  0  0  0
 35 36  2  0  0  0  0
 36 34  1  0  0  0  0
 37  5  1  0  0  0  0
 38 37  1  0  0  0  0
M  END
>  <MODEL>
1

>  <REMARK>
 VINA RESULT:   -10.075      0.000      0.000
 INTER + INTRA:         -15.529
 INTER:                 -15.082
 INTRA:                  -0.447
 UNBOUND:                -0.447
 SMILES CCO[C@H]1CC[C@@H]1NC(=O)c1cnn2c(NC)cc(NC3=CC=CN(c4ccccn4)[C@@H]3O)nc12
 SMILES IDX 11 1 12 2 13 3 14 4 15 5 18 6 19 7 34 8 35 9 9 10 8 11 10 12
 SMILES IDX 7 14 4 15 5 16 6 17 3 18 2 19 1 20 20 21 21 23 22 24 32 25
 SMILES IDX 23 26 25 27 24 28 33 29 26 31 27 32 31 33 28 34 30 35 29 36
 SMILES IDX 16 37 17 38
 H PARENT 8 13 20 22 33 30 16 39

>  <TORSDO>
F 9

$$$$
