/home/public/agent/runjob/dock/pdbqt_output/ligand_5_docking.pdbqt
 OpenBabel01312618563D

 40 43  0  0  1  0  0  0  0  0999 V2000
    5.1250  -42.1870   23.5210 C   0  0  1  0  0  3  0  0  0  0  0  0
    5.4420  -40.9780   24.0600 C   0  0  0  0  0  3  0  0  0  0  0  0
    5.7350  -40.8050   25.4300 C   0  0  2  0  0  3  0  0  0  0  0  0
    5.6870  -41.8970   26.1900 N   0  0  0  0  0  4  0  0  0  0  0  0
    5.3700  -43.1080   25.6640 C   0  0  0  0  0  0  0  0  0  0  0  0
    5.2390  -44.3630   26.1830 C   0  0  0  0  0  0  0  0  0  0  0  0
    4.8820  -45.2440   25.1450 C   0  0  0  0  0  3  0  0  0  0  0  0
    4.8110  -44.5020   24.0500 N   0  0  0  0  0  0  0  0  0  0  0  0
    5.0920  -43.2480   24.3360 N   0  0  0  0  0  0  0  0  0  0  0  0
    4.8330  -42.2740   22.1310 N   0  0  0  0  0  2  0  0  0  0  0  0
    3.4510  -42.6160   21.7890 C   0  0  0  0  0  1  0  0  0  0  0  0
    5.1350  -41.8270   26.8540 H   0  0  0  0  0  0  0  0  0  0  0  0
    6.0130  -39.4770   25.8050 N   0  0  0  0  0  2  0  0  0  0  0  0
    5.9620  -40.8210   23.8380 H   0  0  0  0  0  0  0  0  0  0  0  0
    7.2560  -38.9200   25.3870 C   0  0  0  0  0  0  0  0  0  0  0  0
    8.2820  -39.7020   24.9090 C   0  0  0  0  0  3  0  0  0  0  0  0
    7.5080  -37.5430   25.5150 C   0  0  0  0  0  0  0  0  0  0  0  0
    9.5130  -39.2020   24.5610 C   0  0  0  0  0  3  0  0  0  0  0  0
    8.7280  -37.0490   25.1740 N   0  0  0  0  0  0  0  0  0  0  0  0
    6.5920  -36.8050   25.9480 O   0  0  0  0  0  0  0  0  0  0  0  0
    9.7160  -37.8440   24.7050 C   0  0  0  0  0  3  0  0  0  0  0  0
    8.9680  -35.6640   25.3680 C   0  0  0  0  0  0  0  0  0  0  0  0
   10.2000  -35.3480   25.9570 C   0  0  0  0  0  3  0  0  0  0  0  0
    8.0990  -34.6870   25.0140 N   0  0  0  0  0  0  0  0  0  0  0  0
   10.5730  -34.0370   26.1960 C   0  0  0  0  0  3  0  0  0  0  0  0
    8.4400  -33.3800   25.2380 C   0  0  0  0  0  0  0  0  0  0  0  0
    9.6480  -33.0640   25.8150 C   0  0  0  0  0  3  0  0  0  0  0  0
    7.5210  -32.2640   24.8610 C   0  0  0  0  0  1  0  0  0  0  0  0
    5.3780  -44.8560   27.5440 C   0  0  0  0  0  0  0  0  0  0  0  0
    4.4410  -44.9130   28.3690 O   0  0  0  0  0  0  0  0  0  0  0  0
    6.6730  -45.3050   27.9490 N   0  0  0  0  0  2  0  0  0  0  0  0
    3.0320  -42.5260   26.6680 H   0  0  0  0  0 15  0  0  0  0  0  0
    6.9660  -45.8440   29.2540 C   0  0  2  0  0  3  0  0  0  0  0  0
    8.4540  -45.9690   29.5040 C   0  0  0  0  0  2  0  0  0  0  0  0
    6.5920  -47.2930   29.1840 C   0  0  0  0  0  0  0  0  0  0  0  0
    8.8150  -47.1200   28.5850 C   0  0  0  0  0  2  0  0  0  0  0  0
    7.6400  -47.9500   28.4940 N   0  0  0  0  0  0  0  0  0  0  0  0
    5.6080  -47.8630   29.6060 O   0  0  0  0  0  0  0  0  0  0  0  0
    7.9340  -49.2430   29.1030 C   0  0  0  0  0  1  0  0  0  0  0  0
    5.3400  -40.8780   26.8330 H   0  0  0  0  0  0  0  0  0  0  0  0
  1 10  1  1  0  0  0
  1  2  1  0  0  0  0
  1  9  1  0  0  0  0
  2  3  1  0  0  0  0
  3 13  1  1  0  0  0
  3  4  1  0  0  0  0
  4 40  1  0  0  0  0
  4 12  1  0  0  0  0
  5  6  2  0  0  0  0
  5  4  1  0  0  0  0
  6 29  1  0  0  0  0
  7  6  1  0  0  0  0
  8  9  1  0  0  0  0
  8  7  2  0  0  0  0
  9  5  1  0  0  0  0
 11 10  1  0  0  0  0
 14  2  1  0  0  0  0
 15 17  1  0  0  0  0
 15 13  1  0  0  0  0
 16 15  2  0  0  0  0
 17 20  2  0  0  0  0
 18 21  2  0  0  0  0
 18 16  1  0  0  0  0
 19 22  1  0  0  0  0
 19 17  1  0  0  0  0
 21 19  1  0  0  0  0
 22 23  1  0  0  0  0
 23 25  2  0  0  0  0
 24 26  1  0  0  0  0
 24 22  2  0  0  0  0
 26 27  2  0  0  0  0
 27 25  1  0  0  0  0
 28 26  1  0  0  0  0
 29 31  1  0  0  0  0
 29 30  2  0  0  0  0
 33 31  1  6  0  0  0
 33 34  1  0  0  0  0
 35 33  1  0  0  0  0
 35 38  2  0  0  0  0
 36 34  1  0  0  0  0
 37 36  1  0  0  0  0
 37 39  1  0  0  0  0
 37 35  1  0  0  0  0
M  END
>  <MODEL>
1

>  <REMARK>
 VINA RESULT:   -11.265      0.000      0.000
 INTER + INTRA:         -15.603
 INTER:                 -15.217
 INTRA:                  -0.386
 UNBOUND:                -0.386
 SMILES CNc1cc(Nc2cccn(-c3cccc(C)n3)c2=O)nc2c(C(=O)N[C@@H]3CC[N@@H+](C)C3=O)cnn12
 SMILES IDX 3 1 4 2 5 3 21 4 22 5 23 6 34 7 35 8 36 9 2 10 1 11 6 13
 SMILES IDX 7 15 8 16 19 17 9 18 11 19 20 20 10 21 12 22 13 23 18 24
 SMILES IDX 14 25 16 26 15 27 17 28 24 29 25 30 26 31 27 33 28 34 32 35
 SMILES IDX 29 36 30 37 33 38 31 39
 H PARENT 2 12 6 14 26 32 30 40

>  <TORSDO>
F 6

$$$$
